                                  MODFLOW-2005     
      U.S. GEOLOGICAL SURVEY MODULAR FINITE-DIFFERENCE GROUND-WATER FLOW MODEL
                            VERSION 1.12.00 2/3/2017

 LIST FILE: evapotranspiration.list
                         UNIT    2

 OPENING evapotranspiration.dis
 FILE TYPE:DIS   UNIT   11   STATUS:OLD    
 FORMAT:FORMATTED              ACCESS:SEQUENTIAL          

 OPENING evapotranspiration.bas
 FILE TYPE:BAS6   UNIT   13   STATUS:OLD    
 FORMAT:FORMATTED              ACCESS:SEQUENTIAL          

 OPENING evapotranspiration.lpf
 FILE TYPE:LPF   UNIT   15   STATUS:OLD    
 FORMAT:FORMATTED              ACCESS:SEQUENTIAL          

 OPENING evapotranspiration.oc
 FILE TYPE:OC   UNIT   14   STATUS:OLD    
 FORMAT:FORMATTED              ACCESS:SEQUENTIAL          

 OPENING evapotranspiration.pcg
 FILE TYPE:PCG   UNIT   27   STATUS:OLD    
 FORMAT:FORMATTED              ACCESS:SEQUENTIAL          

 OPENING evapotranspiration.rch
 FILE TYPE:RCH   UNIT   19   STATUS:OLD    
 FORMAT:FORMATTED              ACCESS:SEQUENTIAL          

 OPENING evapotranspiration.str
 FILE TYPE:STR   UNIT  118   STATUS:OLD    
 FORMAT:FORMATTED              ACCESS:SEQUENTIAL          

 OPENING evapotranspiration.evt
 FILE TYPE:EVT   UNIT   22   STATUS:OLD    
 FORMAT:FORMATTED              ACCESS:SEQUENTIAL          

 OPENING evapotranspiration.cbc
 FILE TYPE:DATA(BINARY)   UNIT   53   STATUS:REPLACE
 FORMAT:BINARY                 ACCESS:SEQUENTIAL          

 OPENING evapotranspiration.hds
 FILE TYPE:DATA(BINARY)   UNIT   51   STATUS:REPLACE
 FORMAT:BINARY                 ACCESS:SEQUENTIAL          

 BAS -- BASIC PACKAGE, VERSION 7, 5/2/2005 INPUT READ FROM UNIT   13
 
 MODFLOW was compiled using mixed precision
 Precision of REAL variables:           6
 Precision of DOUBLE PRECISION variables:          15

 DISCRETIZATION INPUT DATA READ FROM UNIT   11
 # DIS package for  MODFLOW-2005, generated by Flopy.
    2 LAYERS        50 ROWS        50 COLUMNS
    1 STRESS PERIOD(S) IN SIMULATION
 MODEL TIME UNIT IS DAYS
 MODEL LENGTH UNIT IS METERS
  Confining bed flag for each layer:
   0   0

                     DELR =   1000.00    

                     DELC =   1000.00    



           TOP ELEVATION OF LAYER 1
 READING ON UNIT   11 WITH FORMAT: (50E15.6)           



             MODEL LAYER BOTTOM EL. FOR LAYER   1
 READING ON UNIT   11 WITH FORMAT: (50E15.6)           



             MODEL LAYER BOTTOM EL. FOR LAYER   2
 READING ON UNIT   11 WITH FORMAT: (50E15.6)           


 STRESS PERIOD     LENGTH       TIME STEPS     MULTIPLIER FOR DELT    SS FLAG
 ----------------------------------------------------------------------------
        1         1.000000          1                    1.000         SS

 STEADY-STATE SIMULATION



 
 # BAS6 package for  MODFLOW-2005, generated by Flopy.                           
 THE FREE FORMAT OPTION HAS BEEN SELECTED



                     BOUNDARY ARRAY FOR LAYER   1
 READING ON UNIT   13 WITH FORMAT: (50I10)             



                     BOUNDARY ARRAY FOR LAYER   2
 READING ON UNIT   13 WITH FORMAT: (50I10)             

 AQUIFER HEAD WILL BE SET TO  -999.99     AT ALL NO-FLOW NODES (IBOUND=0).



                       INITIAL HEAD FOR LAYER   1
 READING ON UNIT   13 WITH FORMAT: (50E15.6)           



                       INITIAL HEAD FOR LAYER   2
 READING ON UNIT   13 WITH FORMAT: (50E15.6)           
 # OC package for  MODFLOW-2005, generated by Flopy.

 OUTPUT CONTROL IS SPECIFIED ONLY AT TIME STEPS FOR WHICH OUTPUT IS DESIRED
 COMPACT CELL-BY-CELL BUDGET FILES WILL BE WRITTEN
 AUXILIARY DATA WILL BE SAVED IN CELL-BY-CELL BUDGET FILES
 HEAD PRINT FORMAT CODE IS   0    DRAWDOWN PRINT FORMAT CODE IS   0
 HEADS WILL BE SAVED ON UNIT   51    DRAWDOWNS WILL BE SAVED ON UNIT    0

 LPF -- LAYER-PROPERTY FLOW PACKAGE, VERSION 7, 5/2/2005
         INPUT READ FROM UNIT   15
 # LPF package for  MODFLOW-2005, generated by Flopy.
 CELL-BY-CELL FLOWS WILL BE SAVED ON UNIT   53
 HEAD AT CELLS THAT CONVERT TO DRY= -1.00000E+30
 No named parameters

   LAYER FLAGS:
 LAYER       LAYTYP        LAYAVG         CHANI        LAYVKA        LAYWET
 ---------------------------------------------------------------------------
    1             1             0     0.000E+00             0             0
    2             1             0     0.000E+00             0             0

   INTERPRETATION OF LAYER FLAGS:
                        INTERBLOCK     HORIZONTAL    DATA IN
         LAYER TYPE   TRANSMISSIVITY   ANISOTROPY   ARRAY VKA   WETTABILITY
 LAYER      (LAYTYP)      (LAYAVG)       (CHANI)      (LAYVKA)      (LAYWET)
 ---------------------------------------------------------------------------
    1   CONVERTIBLE      HARMONIC      VARIABLE    VERTICAL K  NON-WETTABLE
    2   CONVERTIBLE      HARMONIC      VARIABLE    VERTICAL K  NON-WETTABLE

 WETTING CAPABILITY IS NOT ACTIVE IN ANY LAYER

    HYD. COND. ALONG ROWS =   21.5000     FOR LAYER   1

   HORIZ. ANI. (COL./ROW) =   1.00000     FOR LAYER   1

      VERTICAL HYD. COND. =   10.0000     FOR LAYER   1

    HYD. COND. ALONG ROWS =   21.5000     FOR LAYER   2

   HORIZ. ANI. (COL./ROW) =   1.00000     FOR LAYER   2

      VERTICAL HYD. COND. =   10.0000     FOR LAYER   2

 EVT -- EVAPOTRANSPIRATION PACKAGE, VERSION 7, 5/2/2005
         INPUT READ FROM UNIT   22
 # EVT package for  MODFLOW-2005, generated by Flopy.
 No named parameters
 OPTION 3 -- EVAPOTRANSPIRATION FROM HIGHEST ACTIVE NODE IN EACH VERTICAL COLUMN
 CELL-BY-CELL FLOWS WILL BE SAVED ON UNIT   53


     0 Evapotranspiration parameters

 RCH -- RECHARGE PACKAGE, VERSION 7, 5/2/2005 INPUT READ FROM UNIT   19
 # RCH package for  MODFLOW-2005, generated by Flopy.
 No named parameters
 OPTION 3 -- RECHARGE TO HIGHEST ACTIVE NODE IN EACH VERTICAL COLUMN


     0 Recharge parameters

 STR -- STREAM PACKAGE, VERSION 7, 5/2/2005 INPUT READ FROM UNIT  118
 # STR package for  MODFLOW-2005, generated by Flopy.
 No named parameters
 MAXIMUM OF     44 ACTIVE STREAM NODES AT ONE TIME
 NUMBER OF STREAM SEGMENTS IS      1
 NUMBER OF STREAM TRIBUTARIES IS      0
 CELL BUDGETS WILL BE SAVED ON UNITS   53 AND   53


     0 Stream parameters

 PCG -- CONJUGATE-GRADIENT SOLUTION PACKAGE, VERSION 7, 5/2/2005
 # PCG package for  MODFLOW-2005, generated by Flopy.
 MAXIMUM OF     50 CALLS OF SOLUTION ROUTINE
 MAXIMUM OF     30 INTERNAL ITERATIONS PER CALL TO SOLUTION ROUTINE
 MATRIX PRECONDITIONING TYPE :    1



                                    SOLUTION BY THE CONJUGATE-GRADIENT METHOD
                                   -------------------------------------------
                    MAXIMUM NUMBER OF CALLS TO PCG ROUTINE =       50
                        MAXIMUM ITERATIONS PER CALL TO PCG =       30
                               MATRIX PRECONDITIONING TYPE =        1
        RELAXATION FACTOR (ONLY USED WITH PRECOND. TYPE 1) =    0.10000E+01
 PARAMETER OF POLYNOMIAL PRECOND. = 2 (2) OR IS CALCULATED :        0
                         HEAD CHANGE CRITERION FOR CLOSURE =    0.10000E-04
                     RESIDUAL CHANGE CRITERION FOR CLOSURE =    0.10000E-04
            PCG HEAD AND RESIDUAL CHANGE PRINTOUT INTERVAL =      999
     PRINTING FROM SOLVER IS LIMITED(1) OR SUPPRESSED (>1) =        3
                            STEADY-STATE DAMPING PARAMETER =    0.10000E+01
                               TRANSIENT DAMPING PARAMETER =    0.10000E+01
1
                            STRESS PERIOD NO.    1, LENGTH =   1.000000    
                            -----------------------------------------------

                              NUMBER OF TIME STEPS =     1

                               MULTIPLIER FOR DELT =     1.000

                            INITIAL TIME STEP SIZE =   1.000000    



                         ET SURFACE
 READING ON UNIT   22 WITH FORMAT: (50E15.6)           



            EVAPOTRANSPIRATION RATE
 READING ON UNIT   22 WITH FORMAT: (50E15.6)           



                   EXTINCTION DEPTH
 READING ON UNIT   22 WITH FORMAT: (50E15.6)           



                           RECHARGE
 READING ON UNIT   19 WITH FORMAT: (50E15.6)           

     44 STREAM REACHES
 
 SOLVING FOR HEAD 

 OUTPUT CONTROL FOR STRESS PERIOD    1   TIME STEP    1
    PRINT HEAD FOR ALL LAYERS
    PRINT BUDGET
    SAVE HEAD FOR ALL LAYERS
    SAVE BUDGET
 UBDSV2 SAVING "   CONSTANT HEAD" ON UNIT  53 AT TIME STEP  1, STRESS PERIOD   1
 UBDSV1 SAVING "FLOW RIGHT FACE " ON UNIT  53 AT TIME STEP  1, STRESS PERIOD   1
 UBDSV1 SAVING "FLOW FRONT FACE " ON UNIT  53 AT TIME STEP  1, STRESS PERIOD   1
 UBDSV1 SAVING "FLOW LOWER FACE " ON UNIT  53 AT TIME STEP  1, STRESS PERIOD   1
 UBDSV3 SAVING "              ET" ON UNIT  53 AT TIME STEP  1, STRESS PERIOD   1
 UBDSV4 SAVING "  STREAM LEAKAGE" ON UNIT  53 AT TIME STEP  1, STRESS PERIOD   1
 UBDSV4 SAVING "STREAM FLOW OUT " ON UNIT  53 AT TIME STEP  1, STRESS PERIOD   1
1
              HEAD IN LAYER   1 AT END OF TIME STEP   1 IN STRESS PERIOD    1
  ---------------------------------------------------------------------------

            1           2           3           4           5           6           7           8           9          10
           11          12          13          14          15          16          17          18          19          20
           21          22          23          24          25          26          27          28          29          30
           31          32          33          34          35          36          37          38          39          40
           41          42          43          44          45          46          47          48          49          50
 ........................................................................................................................
   1  -1000.0     -1000.0     -1000.0     -1000.0     -1000.0     -1000.0     -1000.0     -1000.0     -1000.0     -1000.0    
      -1000.0     -1000.0     -1000.0     -1000.0     -1000.0     -1000.0     -1000.0     -1000.0     -1000.0     -1000.0    
      -1000.0     -1000.0     -1000.0     -1000.0     -1000.0     -1000.0     -1000.0     -1000.0     -1000.0     -1000.0    
      -1000.0     -1000.0     -1000.0     -1000.0     -1000.0     -1000.0     -1000.0     -1000.0     -1000.0     -1000.0    
      -1000.0     -1000.0     -1000.0     -1000.0     -1000.0     -1000.0     -1000.0     -1000.0     -1000.0     -1000.0    
   2  -1000.0     -1000.0     -1000.0     -1000.0     -1000.0     -1000.0     -1000.0     -1000.0     -1000.0     -1000.0    
      -1000.0     -1000.0     -1000.0     -1000.0     -1000.0     -1000.0     -1000.0     -1000.0     -1000.0     -1000.0    
      -1000.0     -1000.0     -1000.0       77.65       77.58       77.47       77.33       77.19       77.03       76.88    
        76.73       76.59       76.47       76.39     -1000.0     -1000.0     -1000.0     -1000.0     -1000.0     -1000.0    
      -1000.0     -1000.0     -1000.0     -1000.0     -1000.0     -1000.0     -1000.0     -1000.0     -1000.0     -1000.0    
   3  -1000.0     -1000.0     -1000.0     -1000.0     -1000.0     -1000.0     -1000.0     -1000.0     -1000.0     -1000.0    
      -1000.0     -1000.0     -1000.0     -1000.0     -1000.0     -1000.0     -1000.0     -1000.0     -1000.0     -1000.0    
      -1000.0     -1000.0       77.82       77.73       77.62       77.49       77.35       77.19       77.03       76.87    
        76.72       76.57       76.43       76.32       76.21     -1000.0     -1000.0     -1000.0     -1000.0     -1000.0    
      -1000.0     -1000.0     -1000.0     -1000.0     -1000.0     -1000.0     -1000.0     -1000.0     -1000.0     -1000.0    
   4  -1000.0     -1000.0     -1000.0     -1000.0     -1000.0     -1000.0     -1000.0     -1000.0     -1000.0     -1000.0    
      -1000.0     -1000.0     -1000.0     -1000.0     -1000.0     -1000.0     -1000.0     -1000.0     -1000.0     -1000.0    
      -1000.0     -1000.0       77.92       77.81       77.68       77.53       77.37       77.20       77.04       76.87    
        76.70       76.53       76.37       76.23       76.11     -1000.0     -1000.0     -1000.0     -1000.0     -1000.0    
      -1000.0     -1000.0     -1000.0     -1000.0     -1000.0     -1000.0     -1000.0     -1000.0     -1000.0     -1000.0    
   5  -1000.0     -1000.0     -1000.0     -1000.0     -1000.0     -1000.0     -1000.0     -1000.0     -1000.0     -1000.0    
      -1000.0     -1000.0     -1000.0     -1000.0     -1000.0     -1000.0     -1000.0       79.10       79.01       78.86    
        78.66       78.42       78.12       77.92       77.75       77.57       77.40       77.22       77.04       76.86    
        76.67       76.49       76.30       76.11       75.88       75.54       75.24       74.96       74.70       74.46    
        74.24       74.05       73.89       73.79     -1000.0     -1000.0     -1000.0     -1000.0     -1000.0     -1000.0    
   6  -1000.0     -1000.0     -1000.0     -1000.0     -1000.0     -1000.0     -1000.0     -1000.0     -1000.0     -1000.0    
      -1000.0     -1000.0     -1000.0     -1000.0     -1000.0     -1000.0     -1000.0       79.19       79.07       78.90    
        78.70       78.47       78.23       78.01       77.81       77.62       77.43       77.24       77.04       76.85    
        76.65       76.45       76.24       76.02       75.78       75.49       75.21       74.94       74.68       74.44    
        74.22       74.01       73.83       73.69       73.56     -1000.0     -1000.0     -1000.0     -1000.0     -1000.0    
   7  -1000.0     -1000.0     -1000.0     -1000.0     -1000.0     -1000.0     -1000.0     -1000.0     -1000.0     -1000.0    
      -1000.0     -1000.0     -1000.0       80.22       80.12       79.93       79.70       79.40       79.18       78.98    
        78.76       78.54       78.31       78.09       77.87       77.67       77.46       77.25       77.05       76.84    
        76.63       76.41       76.19       75.96       75.71       75.44       75.17       74.91       74.65       74.40    
        74.17       73.95       73.74       73.57       73.43     -1000.0     -1000.0     -1000.0     -1000.0     -1000.0    
   8  -1000.0     -1000.0     -1000.0     -1000.0     -1000.0     -1000.0     -1000.0     -1000.0     -1000.0     -1000.0    
      -1000.0     -1000.0       80.40       80.30       80.17       79.98       79.76       79.52       79.29       79.06    
        78.84       78.61       78.38       78.15       77.93       77.71       77.49       77.27       77.05       76.83    
        76.61       76.38       76.15       75.91       75.66       75.39       75.13       74.87       74.61       74.35    
        74.10       73.87       73.63       73.40       73.16       72.81       72.57       72.43     -1000.0     -1000.0    
   9  -1000.0     -1000.0     -1000.0     -1000.0     -1000.0     -1000.0     -1000.0     -1000.0     -1000.0     -1000.0    
      -1000.0     -1000.0       80.48       80.40       80.26       80.07       79.85       79.62       79.39       79.15    
        78.92       78.68       78.45       78.21       77.98       77.75       77.52       77.29       77.06       76.83    
        76.60       76.36       76.12       75.87       75.61       75.35       75.09       74.82       74.55       74.29    
        74.03       73.77       73.52       73.26       72.99       72.70       72.46       72.30     -1000.0     -1000.0    
  10  -1000.0     -1000.0     -1000.0     -1000.0     -1000.0     -1000.0     -1000.0     -1000.0     -1000.0     -1000.0    
      -1000.0     -1000.0       80.61       80.52       80.38       80.18       79.95       79.72       79.48       79.24    
        79.00       78.75       78.51       78.27       78.03       77.79       77.55       77.31       77.07       76.83    
        76.59       76.34       76.09       75.83       75.57       75.31       75.04       74.77       74.50       74.23    
        73.95       73.68       73.41       73.13       72.84       72.54       72.26       72.00       71.73     -1000.0    
  11  -1000.0     -1000.0     -1000.0     -1000.0     -1000.0     -1000.0     -1000.0     -1000.0     -1000.0     -1000.0    
      -1000.0     -1000.0       80.79       80.69       80.52       80.30       80.07       79.83       79.58       79.33    
        79.08       78.83       78.57       78.32       78.07       77.82       77.58       77.33       77.08       76.83    
        76.58       76.32       76.07       75.80       75.54       75.27       75.00       74.72       74.44       74.16    
        73.88       73.59       73.30       73.00       72.69       72.37       72.05       71.73       71.45     -1000.0    
  12  -1000.0     -1000.0     -1000.0     -1000.0     -1000.0     -1000.0     -1000.0     -1000.0     -1000.0     -1000.0    
      -1000.0     -1000.0       81.06       80.91       80.69       80.45       80.19       79.94       79.68       79.42    
        79.16       78.90       78.64       78.38       78.12       77.86       77.60       77.35       77.09       76.83    
        76.57       76.31       76.05       75.78       75.51       75.23       74.95       74.67       74.39       74.10    
        73.80       73.50       73.20       72.88       72.55       72.20       71.83       71.41       70.88       70.00    
  13  -1000.0     -1000.0     -1000.0     -1000.0     -1000.0       83.23       83.15       83.00       82.81       82.58    
        82.29       81.93       81.46       81.15       80.88       80.60       80.32       80.05       79.78       79.51    
        79.23       78.96       78.70       78.43       78.16       77.89       77.63       77.36       77.10       76.83    
        76.57       76.30       76.03       75.75       75.48       75.20       74.91       74.63       74.34       74.04    
        73.74       73.42       73.10       72.77       72.42       72.05       71.65       71.20       70.66       70.00    
  14  -1000.0     -1000.0     -1000.0       83.48       83.42       83.30       83.18       83.03       82.84       82.61    
        82.33       82.02       81.66       81.34       81.04       80.74       80.45       80.16       79.87       79.59    
        79.31       79.03       78.75       78.48       78.20       77.93       77.65       77.38       77.11       76.83    
        76.56       76.29       76.01       75.73       75.45       75.17       74.88       74.59       74.29       73.98    
        73.67       73.35       73.02       72.68       72.32       71.93       71.52       71.06       70.56       70.00    
  15  -1000.0     -1000.0       83.57       83.52       83.45       83.35       83.22       83.07       82.88       82.66    
        82.40       82.11       81.80       81.49       81.18       80.87       80.56       80.26       79.97       79.68    
        79.38       79.10       78.81       78.52       78.24       77.96       77.68       77.39       77.12       76.84    
        76.56       76.28       76.00       75.71       75.43       75.14       74.84       74.55       74.24       73.93    
        73.62       73.29       72.95       72.60       72.23       71.84       71.43       70.98       70.50       70.00    
  16  -1000.0     -1000.0       83.60       83.56       83.49       83.39       83.27       83.12       82.93       82.72    
        82.48       82.21       81.92       81.62       81.31       80.99       80.67       80.36       80.06       79.76    
        79.46       79.16       78.86       78.57       78.27       77.98       77.70       77.41       77.12       76.84    
        76.55       76.27       75.98       75.69       75.40       75.11       74.81       74.51       74.21       73.89    
        73.57       73.24       72.89       72.54       72.16       71.77       71.36       70.93       70.47       70.00    
  17  -1000.0     -1000.0       83.64       83.60       83.54       83.44       83.32       83.17       83.00       82.79    
        82.56       82.30       82.03       81.73       81.42       81.09       80.77       80.46       80.14       79.83    
        79.52       79.22       78.91       78.61       78.31       78.01       77.71       77.42       77.13       76.84    
        76.55       76.26       75.97       75.68       75.38       75.09       74.79       74.48       74.17       73.86    
        73.53       73.19       72.85       72.49       72.11       71.72       71.32       70.89       70.45       70.00    
  18  -1000.0     -1000.0       83.70       83.66       83.59       83.50       83.38       83.23       83.06       82.86    
        82.64       82.39       82.12       81.83       81.52       81.20       80.87       80.55       80.23       79.91    
        79.59       79.27       78.96       78.65       78.34       78.03       77.73       77.43       77.13       76.83    
        76.54       76.25       75.95       75.66       75.37       75.07       74.77       74.46       74.15       73.83    
        73.50       73.16       72.81       72.45       72.08       71.69       71.28       70.87       70.44       70.00    
  19  -1000.0       83.82       83.77       83.72       83.65       83.56       83.44       83.30       83.13       82.94    
        82.72       82.48       82.22       81.93       81.62       81.29       80.96       80.63       80.31       79.98    
        79.65       79.33       79.00       78.68       78.36       78.05       77.74       77.43       77.13       76.83    
        76.53       76.24       75.94       75.65       75.35       75.05       74.75       74.44       74.13       73.80    
        73.48       73.14       72.79       72.43       72.05       71.67       71.27       70.85       70.43       70.00    
  20  -1000.0       83.85       83.82       83.77       83.70       83.62       83.50       83.37       83.21       83.02    
        82.81       82.57       82.31       82.03       81.72       81.39       81.05       80.72       80.38       80.05    
        79.71       79.37       79.04       78.71       78.38       78.06       77.74       77.43       77.12       76.82    
        76.52       76.22       75.93       75.63       75.33       75.03       74.73       74.42       74.11       73.79    
        73.46       73.12       72.77       72.41       72.04       71.66       71.26       70.85       70.43       70.00    
  21  -1000.0       83.89       83.87       83.82       83.76       83.68       83.57       83.44       83.28       83.10    
        82.89       82.66       82.40       82.12       81.81       81.48       81.14       80.80       80.46       80.12    
        79.77       79.42       79.07       78.73       78.40       78.06       77.74       77.42       77.11       76.81    
        76.51       76.21       75.91       75.61       75.32       75.02       74.72       74.41       74.10       73.78    
        73.45       73.12       72.77       72.41       72.04       71.65       71.26       70.85       70.43       70.00    
  22  -1000.0       83.93       83.91       83.87       83.81       83.74       83.63       83.51       83.36       83.18    
        82.98       82.75       82.50       82.22       81.91       81.58       81.24       80.89       80.54       80.18    
        79.82       79.46       79.10       78.75       78.40       78.06       77.73       77.41       77.10       76.79    
        76.49       76.19       75.89       75.60       75.30       75.01       74.71       74.40       74.10       73.78    
        73.46       73.12       72.78       72.42       72.05       71.67       71.27       70.85       70.43       70.00    
  23  -1000.0       83.97       83.95       83.92       83.87       83.80       83.70       83.58       83.44       83.27    
        83.07       82.85       82.60       82.32       82.01       81.68       81.33       80.98       80.62       80.25    
        79.88       79.50       79.13       78.76       78.40       78.05       77.71       77.39       77.07       76.76    
        76.46       76.17       75.87       75.58       75.29       75.00       74.70       74.40       74.10       73.78    
        73.46       73.13       72.79       72.44       72.07       71.69       71.29       70.87       70.44       70.00    
  24  -1000.0       84.00       83.99       83.96       83.92       83.86       83.77       83.66       83.52       83.36    
        83.17       82.95       82.70       82.42       82.12       81.78       81.44       81.08       80.71       80.33    
        79.94       79.54       79.15       78.76       78.38       78.02       77.68       77.35       77.04       76.73    
        76.43       76.14       75.85       75.56       75.28       74.99       74.70       74.40       74.10       73.80    
        73.48       73.16       72.82       72.47       72.11       71.72       71.32       70.90       70.46       70.00    
  25  -1000.0       84.03       84.02       84.00       83.96       83.92       83.85       83.75       83.61       83.45    
        83.26       83.05       82.81       82.53       82.23       81.90       81.55       81.18       80.80       80.40    
        80.00       79.58       79.16       78.76       78.36       77.99       77.65       77.32       77.00       76.70    
        76.40       76.11       75.82       75.54       75.26       74.98       74.70       74.41       74.12       73.82    
        73.51       73.19       72.86       72.52       72.16       71.78       71.37       70.94       70.49       70.00    
  26  -1000.0       84.04       84.03       84.02       84.00       83.99       83.93       83.84       83.71       83.55    
        83.37       83.16       82.92       82.65       82.35       82.02       81.68       81.31       80.91       80.49    
        80.06       79.62       79.19       78.75       78.33       77.96       77.61       77.29       76.97       76.67    
        76.37       76.09       75.81       75.53       75.25       74.98       74.70       74.42       74.13       73.84    
        73.54       73.23       72.91       72.58       72.23       71.85       71.45       71.02       70.54       70.00    
  27  -1000.0     -1000.0       84.04       84.02       83.99       83.95       83.89       83.79       83.66       83.51    
        83.33       83.12       82.89       82.63       82.34       82.02       81.68       81.34       80.97       80.59    
        80.20       79.80       79.39       78.98       78.57       78.19       77.83       77.48       77.15       76.83    
        76.52       76.22       75.92       75.63       75.34       75.05       74.76       74.47       74.17       73.86    
        73.55       73.22       72.89       72.54       72.18       71.79       71.38       70.95       70.49       70.00    
  28  -1000.0     -1000.0       84.03       84.01       83.98       83.92       83.85       83.75       83.62       83.47    
        83.30       83.09       82.86       82.61       82.33       82.02       81.70       81.38       81.05       80.71    
        80.36       79.99       79.60       79.21       78.81       78.42       78.04       77.67       77.32       76.99    
        76.67       76.35       76.04       75.74       75.44       75.13       74.83       74.52       74.21       73.89    
        73.56       73.23       72.88       72.52       72.14       71.75       71.34       70.91       70.46       70.00    
  29  -1000.0     -1000.0       84.02       84.00       83.96       83.89       83.81       83.71       83.59       83.44    
        83.26       83.07       82.84       82.60       82.32       82.03       81.73       81.43       81.13       80.83    
        80.52       80.19       79.83       79.45       79.05       78.64       78.24       77.86       77.50       77.15    
        76.81       76.48       76.16       75.84       75.53       75.22       74.90       74.58       74.26       73.92    
        73.59       73.24       72.88       72.51       72.12       71.73       71.31       70.89       70.45       70.00    
  30  -1000.0     -1000.0       84.01       83.99       83.94       83.86       83.78       83.67       83.55       83.41    
        83.24       83.04       82.82       82.58       82.32       82.04       81.76       81.49       81.22       80.96    
        80.71       80.42       80.09       79.72       79.30       78.87       78.44       78.04       77.66       77.29    
        76.94       76.60       76.27       75.94       75.62       75.30       74.97       74.64       74.31       73.97    
        73.62       73.26       72.89       72.51       72.12       71.71       71.30       70.87       70.44       70.00    
  31  -1000.0     -1000.0       84.01       83.98       83.92       83.82       83.73       83.63       83.52       83.38    
        83.21       83.02       82.80       82.57       82.31       82.04       81.78       81.53       81.30       81.09    
        80.93       80.69       80.39       80.02       79.59       79.08       78.62       78.20       77.80       77.42    
        77.06       76.71       76.37       76.04       75.71       75.38       75.04       74.71       74.36       74.01    
        73.65       73.28       72.91       72.52       72.12       71.71       71.29       70.87       70.44       70.00    
  32  -1000.0     -1000.0     -1000.0     -1000.0     -1000.0       83.73       83.68       83.59       83.48       83.35    
        83.18       83.00       82.78       82.55       82.30       82.03       81.78       81.55       81.34       81.18    
        81.06       80.86       80.57       80.21       79.77       79.23       78.76       78.32       77.92       77.53    
        77.17       76.81       76.47       76.13       75.80       75.46       75.12       74.78       74.43       74.07    
        73.70       73.32       72.93       72.53       72.13       71.71       71.29       70.87       70.43       70.00    
  33  -1000.0     -1000.0     -1000.0     -1000.0     -1000.0       83.67       83.63       83.56       83.45       83.32    
        83.16       82.97       82.76       82.53       82.28       82.01       81.77       81.55       81.36       81.21    
        81.11       80.92       80.65       80.30       79.86       79.33       78.85       78.41       78.01       77.63    
        77.26       76.91       76.56       76.22       75.88       75.54       75.20       74.85       74.50       74.13    
        73.75       73.36       72.97       72.56       72.14       71.72       71.29       70.87       70.43       70.00    
  34  -1000.0     -1000.0     -1000.0     -1000.0     -1000.0       83.63       83.60       83.53       83.43       83.30    
        83.14       82.95       82.74       82.50       82.24       81.98       81.73       81.51       81.32       81.18    
        81.09       80.90       80.64       80.30       79.88       79.36       78.90       78.47       78.08       77.70    
        77.34       76.99       76.64       76.30       75.97       75.63       75.28       74.93       74.57       74.20    
        73.82       73.42       73.01       72.59       72.16       71.73       71.30       70.87       70.43       70.00    
  35  -1000.0     -1000.0     -1000.0     -1000.0     -1000.0       83.61       83.58       83.51       83.42       83.29    
        83.13       82.94       82.71       82.46       82.19       81.92       81.67       81.44       81.25       81.09    
        80.98       80.79       80.53       80.21       79.81       79.34       78.91       78.50       78.12       77.76    
        77.40       77.06       76.72       76.38       76.05       75.71       75.37       75.02       74.66       74.29    
        73.89       73.48       73.05       72.62       72.18       71.74       71.30       70.86       70.43       70.00    
  36  -1000.0     -1000.0     -1000.0     -1000.0     -1000.0       83.59       83.56       83.50       83.41       83.29    
        83.13       82.93       82.69       82.41       82.12       81.84       81.58       81.35       81.14       80.96    
        80.78       80.57       80.31       80.00       79.65       79.27       78.88       78.51       78.15       77.80    
        77.46       77.12       76.79       76.46       76.13       75.80       75.47       75.13       74.77       74.39    
        73.98       73.55       73.10       72.65       72.20       71.74       71.29       70.86       70.43       70.00    
  37  -1000.0     -1000.0     -1000.0     -1000.0     -1000.0       83.58       83.55       83.50       83.42       83.30    
        83.15       82.94       82.67       82.36       82.03       81.72       81.46       81.23       81.02       80.81    
        80.61       80.39       80.13       79.85       79.53       79.19       78.85       78.50       78.16       77.83    
        77.50       77.18       76.86       76.54       76.22       75.90       75.57       75.24       74.89       74.51    
        74.09       73.64       73.16       72.68       72.21       71.74       71.28       70.84       70.41       70.00    
  38  -1000.0     -1000.0     -1000.0     -1000.0     -1000.0       83.58       83.55       83.51       83.44       83.34    
        83.20       82.99       82.67       82.31       81.89       81.56       81.30       81.08       80.88       80.67    
        80.46       80.24       79.99       79.72       79.43       79.12       78.81       78.49       78.17       77.86    
        77.54       77.23       76.92       76.61       76.30       76.00       75.68       75.37       75.03       74.67    
        74.25       73.73       73.22       72.71       72.21       71.72       71.23       70.80       70.39       70.00    
  39  -1000.0     -1000.0     -1000.0     -1000.0     -1000.0     -1000.0       83.54       83.51       83.46       83.38    
        83.28       83.15     -1000.0     -1000.0       81.62       81.33       81.12       80.92       80.73       80.54    
        80.33       80.11       79.87       79.61       79.34       79.06       78.77       78.47       78.18       77.88    
        77.58       77.28       76.98       76.69       76.39       76.09       75.80       75.51       75.21       74.88    
        74.49       73.83       73.26       72.73       72.21       71.69       71.14       70.73       70.35       70.00    
  40  -1000.0     -1000.0     -1000.0     -1000.0     -1000.0     -1000.0       83.55       83.52       83.49       83.44    
        83.37     -1000.0     -1000.0     -1000.0     -1000.0       81.02       80.91       80.76       80.60       80.41    
        80.21       80.00       79.77       79.52       79.26       79.00       78.73       78.46       78.18       77.90    
        77.62       77.33       77.04       76.76       76.47       76.19       75.92       75.65       75.40       75.17    
        74.98     -1000.0     -1000.0     -1000.0     -1000.0     -1000.0       70.88       70.63       70.28       70.00    
  41  -1000.0     -1000.0     -1000.0     -1000.0     -1000.0     -1000.0     -1000.0       83.53       83.51       83.48    
      -1000.0     -1000.0     -1000.0     -1000.0     -1000.0       80.81       80.74       80.62       80.47       80.30    
        80.11       79.90       79.67       79.44       79.19       78.95       78.70       78.44       78.19       77.93    
        77.66       77.39       77.10       76.82       76.54       76.28       76.02       75.79       75.58       75.40    
        75.30     -1000.0     -1000.0     -1000.0     -1000.0     -1000.0     -1000.0     -1000.0       70.14       70.00    
  42  -1000.0     -1000.0     -1000.0     -1000.0     -1000.0     -1000.0     -1000.0     -1000.0     -1000.0     -1000.0    
      -1000.0     -1000.0     -1000.0     -1000.0     -1000.0       80.67       80.61       80.51       80.38       80.21    
        80.03       79.82       79.59       79.36       79.13       78.90       78.67       78.43       78.20       77.96    
        77.71       77.44       77.16       76.88       76.61       76.35       76.11       75.89       75.71       75.57    
        75.50     -1000.0     -1000.0     -1000.0     -1000.0     -1000.0     -1000.0     -1000.0     -1000.0     -1000.0    
  43  -1000.0     -1000.0     -1000.0     -1000.0     -1000.0     -1000.0     -1000.0     -1000.0     -1000.0     -1000.0    
      -1000.0     -1000.0     -1000.0     -1000.0     -1000.0       80.60       80.52       80.43       80.31       80.15    
        79.96       79.75       79.51       79.29       79.06       78.85       78.63       78.42       78.21       78.00    
        77.77       77.52       77.22       76.93       76.66       76.40       76.17       75.97       75.80       75.68    
        75.62     -1000.0     -1000.0     -1000.0     -1000.0     -1000.0     -1000.0     -1000.0     -1000.0     -1000.0    
  44  -1000.0     -1000.0     -1000.0     -1000.0     -1000.0     -1000.0     -1000.0     -1000.0     -1000.0     -1000.0    
      -1000.0     -1000.0     -1000.0     -1000.0     -1000.0     -1000.0       80.45       80.38       80.27       80.11    
        79.93       79.70       79.42       79.21       78.99       78.79       78.60       78.42       78.24       78.05    
        77.86       77.63       77.27       76.96       76.68       76.43       76.20       76.01       75.85       75.74    
        75.68     -1000.0     -1000.0     -1000.0     -1000.0     -1000.0     -1000.0     -1000.0     -1000.0     -1000.0    
  45  -1000.0     -1000.0     -1000.0     -1000.0     -1000.0     -1000.0     -1000.0     -1000.0     -1000.0     -1000.0    
      -1000.0     -1000.0     -1000.0     -1000.0     -1000.0     -1000.0     -1000.0     -1000.0     -1000.0     -1000.0    
      -1000.0     -1000.0       79.27       79.13       78.90       78.72       78.56       78.41       78.26       78.11    
        77.98       77.87     -1000.0     -1000.0     -1000.0     -1000.0     -1000.0     -1000.0     -1000.0     -1000.0    
      -1000.0     -1000.0     -1000.0     -1000.0     -1000.0     -1000.0     -1000.0     -1000.0     -1000.0     -1000.0    
  46  -1000.0     -1000.0     -1000.0     -1000.0     -1000.0     -1000.0     -1000.0     -1000.0     -1000.0     -1000.0    
      -1000.0     -1000.0     -1000.0     -1000.0     -1000.0     -1000.0     -1000.0     -1000.0     -1000.0     -1000.0    
      -1000.0     -1000.0     -1000.0     -1000.0       78.76       78.62       78.50       78.39       78.28       78.17    
        78.07       78.00     -1000.0     -1000.0     -1000.0     -1000.0     -1000.0     -1000.0     -1000.0     -1000.0    
      -1000.0     -1000.0     -1000.0     -1000.0     -1000.0     -1000.0     -1000.0     -1000.0     -1000.0     -1000.0    
  47  -1000.0     -1000.0     -1000.0     -1000.0     -1000.0     -1000.0     -1000.0     -1000.0     -1000.0     -1000.0    
      -1000.0     -1000.0     -1000.0     -1000.0     -1000.0     -1000.0     -1000.0     -1000.0     -1000.0     -1000.0    
      -1000.0     -1000.0     -1000.0     -1000.0     -1000.0       78.51       78.45       78.37       78.29       78.21    
        78.14       78.07     -1000.0     -1000.0     -1000.0     -1000.0     -1000.0     -1000.0     -1000.0     -1000.0    
      -1000.0     -1000.0     -1000.0     -1000.0     -1000.0     -1000.0     -1000.0     -1000.0     -1000.0     -1000.0    
  48  -1000.0     -1000.0     -1000.0     -1000.0     -1000.0     -1000.0     -1000.0     -1000.0     -1000.0     -1000.0    
      -1000.0     -1000.0     -1000.0     -1000.0     -1000.0     -1000.0     -1000.0     -1000.0     -1000.0     -1000.0    
      -1000.0     -1000.0     -1000.0     -1000.0     -1000.0       78.45       78.42       78.36       78.30       78.25    
        78.19     -1000.0     -1000.0     -1000.0     -1000.0     -1000.0     -1000.0     -1000.0     -1000.0     -1000.0    
      -1000.0     -1000.0     -1000.0     -1000.0     -1000.0     -1000.0     -1000.0     -1000.0     -1000.0     -1000.0    
  49  -1000.0     -1000.0     -1000.0     -1000.0     -1000.0     -1000.0     -1000.0     -1000.0     -1000.0     -1000.0    
      -1000.0     -1000.0     -1000.0     -1000.0     -1000.0     -1000.0     -1000.0     -1000.0     -1000.0     -1000.0    
      -1000.0     -1000.0     -1000.0     -1000.0     -1000.0       78.42       78.40       78.36       78.31       78.28    
      -1000.0     -1000.0     -1000.0     -1000.0     -1000.0     -1000.0     -1000.0     -1000.0     -1000.0     -1000.0    
      -1000.0     -1000.0     -1000.0     -1000.0     -1000.0     -1000.0     -1000.0     -1000.0     -1000.0     -1000.0    
  50  -1000.0     -1000.0     -1000.0     -1000.0     -1000.0     -1000.0     -1000.0     -1000.0     -1000.0     -1000.0    
      -1000.0     -1000.0     -1000.0     -1000.0     -1000.0     -1000.0     -1000.0     -1000.0     -1000.0     -1000.0    
      -1000.0     -1000.0     -1000.0     -1000.0     -1000.0     -1000.0     -1000.0     -1000.0     -1000.0     -1000.0    
      -1000.0     -1000.0     -1000.0     -1000.0     -1000.0     -1000.0     -1000.0     -1000.0     -1000.0     -1000.0    
      -1000.0     -1000.0     -1000.0     -1000.0     -1000.0     -1000.0     -1000.0     -1000.0     -1000.0     -1000.0    
1
              HEAD IN LAYER   2 AT END OF TIME STEP   1 IN STRESS PERIOD    1
  ---------------------------------------------------------------------------

            1           2           3           4           5           6           7           8           9          10
           11          12          13          14          15          16          17          18          19          20
           21          22          23          24          25          26          27          28          29          30
           31          32          33          34          35          36          37          38          39          40
           41          42          43          44          45          46          47          48          49          50
 ........................................................................................................................
   1  -1000.0     -1000.0     -1000.0     -1000.0     -1000.0     -1000.0     -1000.0     -1000.0     -1000.0     -1000.0    
      -1000.0     -1000.0     -1000.0     -1000.0     -1000.0     -1000.0     -1000.0     -1000.0     -1000.0     -1000.0    
      -1000.0     -1000.0     -1000.0     -1000.0     -1000.0     -1000.0     -1000.0     -1000.0     -1000.0     -1000.0    
      -1000.0     -1000.0     -1000.0     -1000.0     -1000.0     -1000.0     -1000.0     -1000.0     -1000.0     -1000.0    
      -1000.0     -1000.0     -1000.0     -1000.0     -1000.0     -1000.0     -1000.0     -1000.0     -1000.0     -1000.0    
   2  -1000.0     -1000.0     -1000.0     -1000.0     -1000.0     -1000.0     -1000.0     -1000.0     -1000.0     -1000.0    
      -1000.0     -1000.0     -1000.0     -1000.0     -1000.0     -1000.0     -1000.0     -1000.0     -1000.0     -1000.0    
      -1000.0     -1000.0     -1000.0       77.65       77.58       77.47       77.33       77.19       77.03       76.88    
        76.73       76.59       76.47       76.39     -1000.0     -1000.0     -1000.0     -1000.0     -1000.0     -1000.0    
      -1000.0     -1000.0     -1000.0     -1000.0     -1000.0     -1000.0     -1000.0     -1000.0     -1000.0     -1000.0    
   3  -1000.0     -1000.0     -1000.0     -1000.0     -1000.0     -1000.0     -1000.0     -1000.0     -1000.0     -1000.0    
      -1000.0     -1000.0     -1000.0     -1000.0     -1000.0     -1000.0     -1000.0     -1000.0     -1000.0     -1000.0    
      -1000.0     -1000.0       77.82       77.73       77.62       77.49       77.35       77.19       77.03       76.87    
        76.72       76.57       76.43       76.32       76.21     -1000.0     -1000.0     -1000.0     -1000.0     -1000.0    
      -1000.0     -1000.0     -1000.0     -1000.0     -1000.0     -1000.0     -1000.0     -1000.0     -1000.0     -1000.0    
   4  -1000.0     -1000.0     -1000.0     -1000.0     -1000.0     -1000.0     -1000.0     -1000.0     -1000.0     -1000.0    
      -1000.0     -1000.0     -1000.0     -1000.0     -1000.0     -1000.0     -1000.0     -1000.0     -1000.0     -1000.0    
      -1000.0     -1000.0       77.92       77.81       77.68       77.53       77.37       77.20       77.04       76.87    
        76.70       76.53       76.37       76.23       76.11     -1000.0     -1000.0     -1000.0     -1000.0     -1000.0    
      -1000.0     -1000.0     -1000.0     -1000.0     -1000.0     -1000.0     -1000.0     -1000.0     -1000.0     -1000.0    
   5  -1000.0     -1000.0     -1000.0     -1000.0     -1000.0     -1000.0     -1000.0     -1000.0     -1000.0     -1000.0    
      -1000.0     -1000.0     -1000.0     -1000.0     -1000.0     -1000.0     -1000.0       79.10       79.01       78.86    
        78.66       78.42       78.12       77.92       77.75       77.57       77.40       77.22       77.04       76.86    
        76.67       76.49       76.30       76.11       75.88       75.54       75.24       74.96       74.70       74.46    
        74.24       74.05       73.89       73.79     -1000.0     -1000.0     -1000.0     -1000.0     -1000.0     -1000.0    
   6  -1000.0     -1000.0     -1000.0     -1000.0     -1000.0     -1000.0     -1000.0     -1000.0     -1000.0     -1000.0    
      -1000.0     -1000.0     -1000.0     -1000.0     -1000.0     -1000.0     -1000.0       79.19       79.07       78.90    
        78.70       78.47       78.23       78.01       77.81       77.62       77.43       77.24       77.04       76.85    
        76.65       76.45       76.24       76.02       75.78       75.49       75.21       74.94       74.68       74.44    
        74.22       74.01       73.83       73.69       73.56     -1000.0     -1000.0     -1000.0     -1000.0     -1000.0    
   7  -1000.0     -1000.0     -1000.0     -1000.0     -1000.0     -1000.0     -1000.0     -1000.0     -1000.0     -1000.0    
      -1000.0     -1000.0     -1000.0       80.22       80.12       79.93       79.70       79.40       79.18       78.98    
        78.76       78.54       78.31       78.09       77.87       77.67       77.46       77.25       77.05       76.84    
        76.63       76.41       76.19       75.96       75.71       75.44       75.17       74.91       74.65       74.40    
        74.17       73.95       73.74       73.57       73.43     -1000.0     -1000.0     -1000.0     -1000.0     -1000.0    
   8  -1000.0     -1000.0     -1000.0     -1000.0     -1000.0     -1000.0     -1000.0     -1000.0     -1000.0     -1000.0    
      -1000.0     -1000.0       80.40       80.30       80.17       79.98       79.76       79.52       79.29       79.06    
        78.84       78.61       78.38       78.15       77.93       77.71       77.49       77.27       77.05       76.83    
        76.61       76.38       76.15       75.91       75.66       75.39       75.13       74.87       74.61       74.35    
        74.10       73.87       73.63       73.40       73.16       72.81       72.57       72.43     -1000.0     -1000.0    
   9  -1000.0     -1000.0     -1000.0     -1000.0     -1000.0     -1000.0     -1000.0     -1000.0     -1000.0     -1000.0    
      -1000.0     -1000.0       80.47       80.40       80.26       80.07       79.85       79.62       79.39       79.15    
        78.92       78.68       78.45       78.21       77.98       77.75       77.52       77.29       77.06       76.83    
        76.60       76.36       76.12       75.87       75.61       75.35       75.09       74.82       74.55       74.29    
        74.03       73.77       73.52       73.26       72.99       72.70       72.46       72.30     -1000.0     -1000.0    
  10  -1000.0     -1000.0     -1000.0     -1000.0     -1000.0     -1000.0     -1000.0     -1000.0     -1000.0     -1000.0    
      -1000.0     -1000.0       80.61       80.52       80.38       80.18       79.95       79.72       79.48       79.24    
        79.00       78.75       78.51       78.27       78.03       77.79       77.55       77.31       77.07       76.83    
        76.59       76.34       76.09       75.83       75.57       75.31       75.04       74.77       74.50       74.23    
        73.95       73.68       73.41       73.13       72.84       72.54       72.26       72.00       71.73     -1000.0    
  11  -1000.0     -1000.0     -1000.0     -1000.0     -1000.0     -1000.0     -1000.0     -1000.0     -1000.0     -1000.0    
      -1000.0     -1000.0       80.79       80.69       80.52       80.30       80.07       79.83       79.58       79.33    
        79.08       78.83       78.57       78.32       78.07       77.82       77.58       77.33       77.08       76.83    
        76.58       76.32       76.07       75.80       75.54       75.27       75.00       74.72       74.44       74.16    
        73.88       73.59       73.30       73.00       72.69       72.37       72.05       71.73       71.45     -1000.0    
  12  -1000.0     -1000.0     -1000.0     -1000.0     -1000.0     -1000.0     -1000.0     -1000.0     -1000.0     -1000.0    
      -1000.0     -1000.0       81.06       80.91       80.69       80.45       80.19       79.94       79.68       79.42    
        79.16       78.90       78.64       78.38       78.12       77.86       77.60       77.35       77.09       76.83    
        76.57       76.31       76.05       75.78       75.51       75.23       74.95       74.67       74.39       74.10    
        73.80       73.50       73.20       72.88       72.55       72.20       71.83       71.41       70.88       70.00    
  13  -1000.0     -1000.0     -1000.0     -1000.0     -1000.0       83.23       83.15       83.00       82.81       82.58    
        82.29       81.93       81.46       81.15       80.88       80.60       80.32       80.05       79.78       79.51    
        79.23       78.96       78.70       78.43       78.16       77.89       77.63       77.36       77.10       76.83    
        76.57       76.30       76.03       75.75       75.48       75.20       74.91       74.63       74.34       74.04    
        73.74       73.42       73.10       72.77       72.42       72.05       71.65       71.20       70.66       70.00    
  14  -1000.0     -1000.0     -1000.0       83.48       83.42       83.30       83.18       83.03       82.84       82.61    
        82.33       82.02       81.66       81.34       81.04       80.74       80.45       80.16       79.87       79.59    
        79.31       79.03       78.75       78.48       78.20       77.93       77.65       77.38       77.11       76.83    
        76.56       76.29       76.01       75.73       75.45       75.17       74.88       74.59       74.29       73.98    
        73.67       73.35       73.02       72.68       72.32       71.93       71.52       71.06       70.56       70.00    
  15  -1000.0     -1000.0       83.57       83.52       83.45       83.35       83.22       83.07       82.88       82.66    
        82.40       82.11       81.80       81.49       81.18       80.87       80.56       80.26       79.97       79.68    
        79.38       79.10       78.81       78.52       78.24       77.96       77.68       77.39       77.12       76.84    
        76.56       76.28       76.00       75.71       75.43       75.14       74.84       74.55       74.24       73.93    
        73.62       73.29       72.95       72.60       72.23       71.84       71.43       70.98       70.50       70.00    
  16  -1000.0     -1000.0       83.60       83.56       83.49       83.39       83.27       83.12       82.93       82.72    
        82.48       82.21       81.92       81.62       81.31       80.99       80.67       80.36       80.06       79.76    
        79.46       79.16       78.86       78.57       78.27       77.98       77.70       77.41       77.12       76.84    
        76.55       76.27       75.98       75.69       75.40       75.11       74.81       74.51       74.21       73.89    
        73.57       73.24       72.89       72.54       72.16       71.77       71.36       70.93       70.47       70.00    
  17  -1000.0     -1000.0       83.64       83.60       83.54       83.44       83.32       83.17       83.00       82.79    
        82.56       82.30       82.03       81.73       81.42       81.09       80.77       80.46       80.14       79.83    
        79.52       79.22       78.91       78.61       78.31       78.01       77.71       77.42       77.13       76.84    
        76.55       76.26       75.97       75.68       75.38       75.09       74.79       74.48       74.17       73.86    
        73.53       73.19       72.85       72.49       72.11       71.72       71.32       70.89       70.45       70.00    
  18  -1000.0     -1000.0       83.70       83.66       83.59       83.50       83.38       83.23       83.06       82.86    
        82.64       82.39       82.12       81.83       81.52       81.20       80.87       80.55       80.23       79.91    
        79.59       79.27       78.96       78.65       78.34       78.03       77.73       77.43       77.13       76.83    
        76.54       76.25       75.95       75.66       75.37       75.07       74.77       74.46       74.15       73.83    
        73.50       73.16       72.81       72.45       72.08       71.69       71.28       70.87       70.44       70.00    
  19  -1000.0       83.82       83.77       83.72       83.65       83.56       83.44       83.30       83.13       82.94    
        82.72       82.48       82.22       81.93       81.62       81.29       80.96       80.63       80.31       79.98    
        79.65       79.33       79.00       78.68       78.36       78.05       77.74       77.43       77.13       76.83    
        76.53       76.24       75.94       75.65       75.35       75.05       74.75       74.44       74.13       73.80    
        73.48       73.14       72.79       72.43       72.05       71.67       71.27       70.85       70.43       70.00    
  20  -1000.0       83.85       83.82       83.77       83.70       83.62       83.50       83.37       83.21       83.02    
        82.81       82.57       82.31       82.03       81.72       81.39       81.05       80.72       80.38       80.05    
        79.71       79.37       79.04       78.71       78.38       78.06       77.74       77.43       77.12       76.82    
        76.52       76.22       75.93       75.63       75.33       75.03       74.73       74.42       74.11       73.79    
        73.46       73.12       72.77       72.41       72.04       71.66       71.26       70.85       70.43       70.00    
  21  -1000.0       83.89       83.87       83.82       83.76       83.68       83.57       83.44       83.28       83.10    
        82.89       82.66       82.40       82.12       81.81       81.48       81.14       80.80       80.46       80.12    
        79.77       79.42       79.07       78.73       78.40       78.06       77.74       77.42       77.11       76.81    
        76.51       76.21       75.91       75.61       75.32       75.02       74.72       74.41       74.10       73.78    
        73.45       73.12       72.77       72.41       72.04       71.65       71.26       70.85       70.43       70.00    
  22  -1000.0       83.93       83.91       83.87       83.81       83.74       83.63       83.51       83.36       83.18    
        82.98       82.75       82.50       82.22       81.91       81.58       81.24       80.89       80.54       80.18    
        79.82       79.46       79.10       78.75       78.40       78.06       77.73       77.41       77.10       76.79    
        76.49       76.19       75.89       75.60       75.30       75.01       74.71       74.40       74.10       73.78    
        73.46       73.12       72.78       72.42       72.05       71.67       71.27       70.85       70.43       70.00    
  23  -1000.0       83.97       83.95       83.92       83.87       83.80       83.70       83.58       83.44       83.27    
        83.07       82.85       82.60       82.32       82.01       81.68       81.33       80.98       80.62       80.25    
        79.88       79.50       79.13       78.76       78.40       78.05       77.71       77.39       77.07       76.76    
        76.46       76.17       75.87       75.58       75.29       75.00       74.70       74.40       74.10       73.78    
        73.46       73.13       72.79       72.44       72.07       71.69       71.29       70.87       70.44       70.00    
  24  -1000.0       84.00       83.99       83.96       83.92       83.86       83.77       83.66       83.52       83.36    
        83.17       82.95       82.70       82.42       82.12       81.78       81.44       81.08       80.71       80.33    
        79.94       79.54       79.15       78.76       78.38       78.02       77.68       77.35       77.04       76.73    
        76.43       76.14       75.85       75.56       75.28       74.99       74.70       74.40       74.10       73.80    
        73.48       73.16       72.82       72.47       72.11       71.72       71.32       70.90       70.46       70.00    
  25  -1000.0       84.03       84.02       83.99       83.96       83.92       83.85       83.75       83.61       83.45    
        83.26       83.05       82.81       82.53       82.23       81.90       81.55       81.18       80.80       80.40    
        80.00       79.58       79.16       78.76       78.36       77.99       77.65       77.32       77.00       76.70    
        76.40       76.11       75.83       75.54       75.26       74.98       74.70       74.41       74.12       73.82    
        73.51       73.19       72.86       72.52       72.16       71.78       71.37       70.94       70.49       70.00    
  26  -1000.0       84.04       84.03       84.02       84.00       83.99       83.93       83.83       83.71       83.55    
        83.37       83.16       82.92       82.65       82.35       82.02       81.68       81.31       80.91       80.49    
        80.06       79.63       79.19       78.75       78.33       77.96       77.61       77.29       76.97       76.67    
        76.37       76.09       75.81       75.53       75.25       74.98       74.70       74.42       74.13       73.84    
        73.54       73.23       72.91       72.58       72.23       71.85       71.45       71.01       70.54       70.00    
  27  -1000.0     -1000.0       84.04       84.02       83.99       83.95       83.89       83.79       83.66       83.51    
        83.33       83.12       82.89       82.63       82.34       82.02       81.68       81.34       80.97       80.59    
        80.20       79.80       79.39       78.98       78.57       78.19       77.83       77.48       77.15       76.83    
        76.52       76.22       75.92       75.63       75.34       75.05       74.76       74.47       74.17       73.86    
        73.55       73.22       72.89       72.54       72.18       71.79       71.38       70.95       70.49       70.00    
  28  -1000.0     -1000.0       84.03       84.01       83.98       83.92       83.85       83.75       83.62       83.47    
        83.30       83.09       82.86       82.61       82.33       82.02       81.70       81.38       81.05       80.71    
        80.36       79.99       79.60       79.21       78.81       78.42       78.04       77.67       77.32       76.99    
        76.67       76.35       76.04       75.74       75.44       75.13       74.83       74.52       74.21       73.89    
        73.56       73.23       72.88       72.52       72.14       71.75       71.34       70.91       70.46       70.00    
  29  -1000.0     -1000.0       84.02       84.00       83.96       83.89       83.81       83.71       83.59       83.44    
        83.26       83.07       82.84       82.60       82.32       82.03       81.73       81.43       81.13       80.83    
        80.52       80.19       79.83       79.45       79.05       78.64       78.24       77.86       77.50       77.15    
        76.81       76.48       76.16       75.84       75.53       75.22       74.90       74.58       74.26       73.92    
        73.59       73.24       72.88       72.51       72.12       71.73       71.31       70.89       70.45       70.00    
  30  -1000.0     -1000.0       84.01       83.99       83.94       83.86       83.78       83.67       83.55       83.41    
        83.24       83.04       82.82       82.58       82.32       82.04       81.76       81.49       81.22       80.96    
        80.71       80.42       80.09       79.72       79.30       78.87       78.44       78.04       77.66       77.29    
        76.94       76.60       76.27       75.94       75.62       75.30       74.97       74.64       74.31       73.97    
        73.62       73.26       72.89       72.51       72.12       71.71       71.30       70.87       70.44       70.00    
  31  -1000.0     -1000.0       84.01       83.98       83.92       83.82       83.73       83.63       83.52       83.38    
        83.21       83.02       82.80       82.57       82.31       82.04       81.78       81.53       81.30       81.09    
        80.93       80.69       80.39       80.02       79.59       79.08       78.62       78.20       77.80       77.42    
        77.06       76.71       76.37       76.04       75.71       75.38       75.04       74.71       74.36       74.01    
        73.65       73.28       72.91       72.52       72.12       71.71       71.29       70.87       70.44       70.00    
  32  -1000.0     -1000.0     -1000.0     -1000.0     -1000.0       83.73       83.68       83.59       83.48       83.35    
        83.18       83.00       82.78       82.55       82.30       82.03       81.78       81.55       81.34       81.18    
        81.06       80.86       80.57       80.21       79.77       79.23       78.76       78.32       77.92       77.53    
        77.17       76.81       76.47       76.13       75.80       75.46       75.12       74.78       74.43       74.07    
        73.70       73.32       72.93       72.53       72.13       71.71       71.29       70.87       70.43       70.00    
  33  -1000.0     -1000.0     -1000.0     -1000.0     -1000.0       83.67       83.63       83.56       83.45       83.32    
        83.16       82.97       82.76       82.53       82.28       82.01       81.77       81.55       81.36       81.21    
        81.11       80.92       80.65       80.30       79.86       79.33       78.85       78.41       78.01       77.63    
        77.26       76.91       76.56       76.22       75.88       75.54       75.20       74.85       74.50       74.13    
        73.75       73.36       72.97       72.56       72.14       71.72       71.29       70.87       70.43       70.00    
  34  -1000.0     -1000.0     -1000.0     -1000.0     -1000.0       83.63       83.60       83.53       83.43       83.30    
        83.14       82.95       82.74       82.50       82.24       81.98       81.73       81.51       81.32       81.18    
        81.08       80.90       80.64       80.30       79.88       79.36       78.90       78.47       78.08       77.70    
        77.34       76.99       76.64       76.30       75.97       75.63       75.28       74.93       74.57       74.20    
        73.82       73.42       73.01       72.59       72.16       71.73       71.30       70.87       70.43       70.00    
  35  -1000.0     -1000.0     -1000.0     -1000.0     -1000.0       83.61       83.58       83.51       83.42       83.29    
        83.13       82.94       82.71       82.46       82.19       81.92       81.67       81.44       81.25       81.09    
        80.98       80.79       80.53       80.21       79.81       79.34       78.91       78.50       78.12       77.76    
        77.40       77.06       76.72       76.38       76.05       75.71       75.37       75.02       74.66       74.29    
        73.89       73.48       73.05       72.62       72.18       71.74       71.30       70.86       70.43       70.00    
  36  -1000.0     -1000.0     -1000.0     -1000.0     -1000.0       83.59       83.56       83.50       83.41       83.29    
        83.13       82.93       82.69       82.41       82.12       81.84       81.58       81.35       81.14       80.96    
        80.78       80.57       80.31       80.00       79.65       79.27       78.88       78.51       78.15       77.80    
        77.46       77.12       76.79       76.46       76.13       75.80       75.47       75.13       74.77       74.39    
        73.98       73.55       73.10       72.65       72.20       71.74       71.29       70.86       70.43       70.00    
  37  -1000.0     -1000.0     -1000.0     -1000.0     -1000.0       83.58       83.55       83.50       83.42       83.30    
        83.15       82.94       82.67       82.36       82.03       81.72       81.46       81.23       81.02       80.81    
        80.61       80.39       80.13       79.85       79.53       79.19       78.85       78.50       78.16       77.83    
        77.50       77.18       76.86       76.54       76.22       75.90       75.57       75.24       74.89       74.51    
        74.09       73.64       73.16       72.68       72.21       71.74       71.28       70.84       70.41       70.00    
  38  -1000.0     -1000.0     -1000.0     -1000.0     -1000.0       83.58       83.55       83.51       83.44       83.34    
        83.20       82.99       82.67       82.31       81.89       81.56       81.30       81.08       80.88       80.67    
        80.46       80.24       79.99       79.72       79.43       79.12       78.81       78.49       78.17       77.86    
        77.54       77.23       76.92       76.61       76.30       76.00       75.68       75.37       75.03       74.67    
        74.25       73.73       73.22       72.71       72.21       71.72       71.23       70.80       70.39       70.00    
  39  -1000.0     -1000.0     -1000.0     -1000.0     -1000.0     -1000.0       83.54       83.51       83.46       83.38    
        83.28       83.15     -1000.0     -1000.0       81.62       81.33       81.12       80.92       80.73       80.54    
        80.33       80.11       79.87       79.61       79.34       79.06       78.77       78.47       78.18       77.88    
        77.58       77.28       76.98       76.69       76.39       76.09       75.80       75.51       75.21       74.88    
        74.49       73.83       73.26       72.73       72.21       71.69       71.14       70.73       70.35       70.00    
  40  -1000.0     -1000.0     -1000.0     -1000.0     -1000.0     -1000.0       83.55       83.52       83.49       83.44    
        83.37     -1000.0     -1000.0     -1000.0     -1000.0       81.02       80.91       80.76       80.60       80.41    
        80.21       80.00       79.77       79.52       79.26       79.00       78.73       78.46       78.18       77.90    
        77.62       77.33       77.04       76.76       76.47       76.19       75.92       75.65       75.40       75.17    
        74.98     -1000.0     -1000.0     -1000.0     -1000.0     -1000.0       70.88       70.63       70.28       70.00    
  41  -1000.0     -1000.0     -1000.0     -1000.0     -1000.0     -1000.0     -1000.0       83.53       83.51       83.48    
      -1000.0     -1000.0     -1000.0     -1000.0     -1000.0       80.81       80.74       80.62       80.47       80.30    
        80.11       79.90       79.67       79.44       79.19       78.95       78.70       78.44       78.19       77.93    
        77.66       77.39       77.10       76.82       76.54       76.28       76.02       75.79       75.58       75.40    
        75.30     -1000.0     -1000.0     -1000.0     -1000.0     -1000.0     -1000.0     -1000.0       70.14       70.00    
  42  -1000.0     -1000.0     -1000.0     -1000.0     -1000.0     -1000.0     -1000.0     -1000.0     -1000.0     -1000.0    
      -1000.0     -1000.0     -1000.0     -1000.0     -1000.0       80.67       80.61       80.51       80.38       80.21    
        80.03       79.82       79.59       79.36       79.13       78.90       78.67       78.43       78.20       77.96    
        77.71       77.44       77.16       76.88       76.61       76.35       76.11       75.89       75.71       75.57    
        75.50     -1000.0     -1000.0     -1000.0     -1000.0     -1000.0     -1000.0     -1000.0     -1000.0     -1000.0    
  43  -1000.0     -1000.0     -1000.0     -1000.0     -1000.0     -1000.0     -1000.0     -1000.0     -1000.0     -1000.0    
      -1000.0     -1000.0     -1000.0     -1000.0     -1000.0       80.60       80.52       80.43       80.31       80.15    
        79.96       79.75       79.51       79.29       79.06       78.85       78.63       78.42       78.21       78.00    
        77.77       77.52       77.22       76.93       76.66       76.40       76.17       75.97       75.80       75.68    
        75.62     -1000.0     -1000.0     -1000.0     -1000.0     -1000.0     -1000.0     -1000.0     -1000.0     -1000.0    
  44  -1000.0     -1000.0     -1000.0     -1000.0     -1000.0     -1000.0     -1000.0     -1000.0     -1000.0     -1000.0    
      -1000.0     -1000.0     -1000.0     -1000.0     -1000.0     -1000.0       80.45       80.38       80.27       80.11    
        79.93       79.70       79.42       79.21       78.99       78.79       78.60       78.42       78.24       78.05    
        77.86       77.63       77.27       76.96       76.68       76.43       76.20       76.01       75.85       75.74    
        75.68     -1000.0     -1000.0     -1000.0     -1000.0     -1000.0     -1000.0     -1000.0     -1000.0     -1000.0    
  45  -1000.0     -1000.0     -1000.0     -1000.0     -1000.0     -1000.0     -1000.0     -1000.0     -1000.0     -1000.0    
      -1000.0     -1000.0     -1000.0     -1000.0     -1000.0     -1000.0     -1000.0     -1000.0     -1000.0     -1000.0    
      -1000.0     -1000.0       79.27       79.13       78.90       78.72       78.56       78.41       78.26       78.11    
        77.98       77.87     -1000.0     -1000.0     -1000.0     -1000.0     -1000.0     -1000.0     -1000.0     -1000.0    
      -1000.0     -1000.0     -1000.0     -1000.0     -1000.0     -1000.0     -1000.0     -1000.0     -1000.0     -1000.0    
  46  -1000.0     -1000.0     -1000.0     -1000.0     -1000.0     -1000.0     -1000.0     -1000.0     -1000.0     -1000.0    
      -1000.0     -1000.0     -1000.0     -1000.0     -1000.0     -1000.0     -1000.0     -1000.0     -1000.0     -1000.0    
      -1000.0     -1000.0     -1000.0     -1000.0       78.76       78.62       78.50       78.39       78.28       78.17    
        78.07       78.00     -1000.0     -1000.0     -1000.0     -1000.0     -1000.0     -1000.0     -1000.0     -1000.0    
      -1000.0     -1000.0     -1000.0     -1000.0     -1000.0     -1000.0     -1000.0     -1000.0     -1000.0     -1000.0    
  47  -1000.0     -1000.0     -1000.0     -1000.0     -1000.0     -1000.0     -1000.0     -1000.0     -1000.0     -1000.0    
      -1000.0     -1000.0     -1000.0     -1000.0     -1000.0     -1000.0     -1000.0     -1000.0     -1000.0     -1000.0    
      -1000.0     -1000.0     -1000.0     -1000.0     -1000.0       78.51       78.45       78.37       78.29       78.21    
        78.14       78.07     -1000.0     -1000.0     -1000.0     -1000.0     -1000.0     -1000.0     -1000.0     -1000.0    
      -1000.0     -1000.0     -1000.0     -1000.0     -1000.0     -1000.0     -1000.0     -1000.0     -1000.0     -1000.0    
  48  -1000.0     -1000.0     -1000.0     -1000.0     -1000.0     -1000.0     -1000.0     -1000.0     -1000.0     -1000.0    
      -1000.0     -1000.0     -1000.0     -1000.0     -1000.0     -1000.0     -1000.0     -1000.0     -1000.0     -1000.0    
      -1000.0     -1000.0     -1000.0     -1000.0     -1000.0       78.45       78.42       78.36       78.30       78.25    
        78.19     -1000.0     -1000.0     -1000.0     -1000.0     -1000.0     -1000.0     -1000.0     -1000.0     -1000.0    
      -1000.0     -1000.0     -1000.0     -1000.0     -1000.0     -1000.0     -1000.0     -1000.0     -1000.0     -1000.0    
  49  -1000.0     -1000.0     -1000.0     -1000.0     -1000.0     -1000.0     -1000.0     -1000.0     -1000.0     -1000.0    
      -1000.0     -1000.0     -1000.0     -1000.0     -1000.0     -1000.0     -1000.0     -1000.0     -1000.0     -1000.0    
      -1000.0     -1000.0     -1000.0     -1000.0     -1000.0       78.42       78.40       78.36       78.31       78.28    
      -1000.0     -1000.0     -1000.0     -1000.0     -1000.0     -1000.0     -1000.0     -1000.0     -1000.0     -1000.0    
      -1000.0     -1000.0     -1000.0     -1000.0     -1000.0     -1000.0     -1000.0     -1000.0     -1000.0     -1000.0    
  50  -1000.0     -1000.0     -1000.0     -1000.0     -1000.0     -1000.0     -1000.0     -1000.0     -1000.0     -1000.0    
      -1000.0     -1000.0     -1000.0     -1000.0     -1000.0     -1000.0     -1000.0     -1000.0     -1000.0     -1000.0    
      -1000.0     -1000.0     -1000.0     -1000.0     -1000.0     -1000.0     -1000.0     -1000.0     -1000.0     -1000.0    
      -1000.0     -1000.0     -1000.0     -1000.0     -1000.0     -1000.0     -1000.0     -1000.0     -1000.0     -1000.0    
      -1000.0     -1000.0     -1000.0     -1000.0     -1000.0     -1000.0     -1000.0     -1000.0     -1000.0     -1000.0    

 HEAD WILL BE SAVED ON UNIT   51 AT END OF TIME STEP    1, STRESS PERIOD    1
1
  VOLUMETRIC BUDGET FOR ENTIRE MODEL AT END OF TIME STEP    1, STRESS PERIOD   1
  ------------------------------------------------------------------------------

     CUMULATIVE VOLUMES      L**3       RATES FOR THIS TIME STEP      L**3/T
     ------------------                 ------------------------

           IN:                                      IN:
           ---                                      ---
             STORAGE =           0.0000               STORAGE =           0.0000
       CONSTANT HEAD =           0.0000         CONSTANT HEAD =           0.0000
                  ET =           0.0000                    ET =           0.0000
            RECHARGE =       21620.0000              RECHARGE =       21620.0000
      STREAM LEAKAGE =        5182.7310        STREAM LEAKAGE =        5182.7310

            TOTAL IN =       26802.7305              TOTAL IN =       26802.7305

          OUT:                                     OUT:
          ----                                     ----
             STORAGE =           0.0000               STORAGE =           0.0000
       CONSTANT HEAD =       20567.5059         CONSTANT HEAD =       20567.5059
                  ET =        1784.3712                    ET =        1784.3712
            RECHARGE =           0.0000              RECHARGE =           0.0000
      STREAM LEAKAGE =        4450.8579        STREAM LEAKAGE =        4450.8579

           TOTAL OUT =       26802.7344             TOTAL OUT =       26802.7344

            IN - OUT =      -3.9062E-03              IN - OUT =      -3.9062E-03

 PERCENT DISCREPANCY =          -0.00     PERCENT DISCREPANCY =          -0.00






         TIME SUMMARY AT END OF TIME STEP    1 IN STRESS PERIOD    1
                    SECONDS     MINUTES      HOURS       DAYS        YEARS
                    -----------------------------------------------------------
   TIME STEP LENGTH  86400.      1440.0      24.000      1.0000     2.73785E-03
 STRESS PERIOD TIME  86400.      1440.0      24.000      1.0000     2.73785E-03
         TOTAL TIME  86400.      1440.0      24.000      1.0000     2.73785E-03
1

 Run end date and time (yyyy/mm/dd hh:mm:ss): 2022/02/23  9:32:28
 Elapsed run time:  0.124 Seconds

