                                  MODFLOW-2005     
      U.S. GEOLOGICAL SURVEY MODULAR FINITE-DIFFERENCE GROUND-WATER FLOW MODEL
                            VERSION 1.12.00 2/3/2017

 LIST FILE: BASE_preag.list
                         UNIT    2

 OPENING BASE_preag.dis
 FILE TYPE:DIS   UNIT   11   STATUS:OLD    
 FORMAT:FORMATTED              ACCESS:SEQUENTIAL          

 OPENING BASE_preag.bas
 FILE TYPE:BAS6   UNIT   13   STATUS:OLD    
 FORMAT:FORMATTED              ACCESS:SEQUENTIAL          

 OPENING BASE_preag.lpf
 FILE TYPE:LPF   UNIT   15   STATUS:OLD    
 FORMAT:FORMATTED              ACCESS:SEQUENTIAL          

 OPENING BASE_preag.oc
 FILE TYPE:OC   UNIT   14   STATUS:OLD    
 FORMAT:FORMATTED              ACCESS:SEQUENTIAL          

 OPENING BASE_preag.pcg
 FILE TYPE:PCG   UNIT   27   STATUS:OLD    
 FORMAT:FORMATTED              ACCESS:SEQUENTIAL          

 OPENING BASE_preag.rch
 FILE TYPE:RCH   UNIT   19   STATUS:OLD    
 FORMAT:FORMATTED              ACCESS:SEQUENTIAL          

 OPENING BASE_preag.evt
 FILE TYPE:EVT   UNIT   22   STATUS:OLD    
 FORMAT:FORMATTED              ACCESS:SEQUENTIAL          

 OPENING BASE_preag.wel
 FILE TYPE:WEL   UNIT   20   STATUS:OLD    
 FORMAT:FORMATTED              ACCESS:SEQUENTIAL          

 OPENING BASE_preag.str
 FILE TYPE:STR   UNIT  118   STATUS:OLD    
 FORMAT:FORMATTED              ACCESS:SEQUENTIAL          

 OPENING BASE_preag.cbc
 FILE TYPE:DATA(BINARY)   UNIT   53   STATUS:REPLACE
 FORMAT:BINARY                 ACCESS:SEQUENTIAL          

 OPENING BASE_preag.hds
 FILE TYPE:DATA(BINARY)   UNIT   51   STATUS:REPLACE
 FORMAT:BINARY                 ACCESS:SEQUENTIAL          

 BAS -- BASIC PACKAGE, VERSION 7, 5/2/2005 INPUT READ FROM UNIT   13
 
 MODFLOW was compiled using mixed precision
 Precision of REAL variables:           6
 Precision of DOUBLE PRECISION variables:          15

 DISCRETIZATION INPUT DATA READ FROM UNIT   11
 # DIS package for  MODFLOW-2005, generated by Flopy.
    3 LAYERS        50 ROWS        50 COLUMNS
    1 STRESS PERIOD(S) IN SIMULATION
 MODEL TIME UNIT IS DAYS
 MODEL LENGTH UNIT IS METERS
  Confining bed flag for each layer:
   0   0   0

                     DELR =   1000.00    

                     DELC =   1000.00    



           TOP ELEVATION OF LAYER 1
 READING ON UNIT   11 WITH FORMAT: (50E15.6)           



             MODEL LAYER BOTTOM EL. FOR LAYER   1
 READING ON UNIT   11 WITH FORMAT: (50E15.6)           



             MODEL LAYER BOTTOM EL. FOR LAYER   2
 READING ON UNIT   11 WITH FORMAT: (50E15.6)           



             MODEL LAYER BOTTOM EL. FOR LAYER   3
 READING ON UNIT   11 WITH FORMAT: (50E15.6)           


 STRESS PERIOD     LENGTH       TIME STEPS     MULTIPLIER FOR DELT    SS FLAG
 ----------------------------------------------------------------------------
        1         1.000000          1                    1.000         SS

 STEADY-STATE SIMULATION



 
 # BAS6 package for  MODFLOW-2005, generated by Flopy.                           
 THE FREE FORMAT OPTION HAS BEEN SELECTED



                     BOUNDARY ARRAY FOR LAYER   1
 READING ON UNIT   13 WITH FORMAT: (50I10)             



                     BOUNDARY ARRAY FOR LAYER   2
 READING ON UNIT   13 WITH FORMAT: (50I10)             



                     BOUNDARY ARRAY FOR LAYER   3
 READING ON UNIT   13 WITH FORMAT: (50I10)             

 AQUIFER HEAD WILL BE SET TO  -999.99     AT ALL NO-FLOW NODES (IBOUND=0).



                       INITIAL HEAD FOR LAYER   1
 READING ON UNIT   13 WITH FORMAT: (50E15.6)           



                       INITIAL HEAD FOR LAYER   2
 READING ON UNIT   13 WITH FORMAT: (50E15.6)           



                       INITIAL HEAD FOR LAYER   3
 READING ON UNIT   13 WITH FORMAT: (50E15.6)           
 # OC package for  MODFLOW-2005, generated by Flopy.

 OUTPUT CONTROL IS SPECIFIED ONLY AT TIME STEPS FOR WHICH OUTPUT IS DESIRED
 COMPACT CELL-BY-CELL BUDGET FILES WILL BE WRITTEN
 AUXILIARY DATA WILL BE SAVED IN CELL-BY-CELL BUDGET FILES
 HEAD PRINT FORMAT CODE IS   0    DRAWDOWN PRINT FORMAT CODE IS   0
 HEADS WILL BE SAVED ON UNIT   51    DRAWDOWNS WILL BE SAVED ON UNIT    0

 LPF -- LAYER-PROPERTY FLOW PACKAGE, VERSION 7, 5/2/2005
         INPUT READ FROM UNIT   15
 # LPF package for  MODFLOW-2005, generated by Flopy.
 CELL-BY-CELL FLOWS WILL BE SAVED ON UNIT   53
 HEAD AT CELLS THAT CONVERT TO DRY= -1.00000E+30
 No named parameters

   LAYER FLAGS:
 LAYER       LAYTYP        LAYAVG         CHANI        LAYVKA        LAYWET
 ---------------------------------------------------------------------------
    1             1             0     0.000E+00             0             0
    2             1             0     0.000E+00             0             0
    3             1             0     0.000E+00             0             0

   INTERPRETATION OF LAYER FLAGS:
                        INTERBLOCK     HORIZONTAL    DATA IN
         LAYER TYPE   TRANSMISSIVITY   ANISOTROPY   ARRAY VKA   WETTABILITY
 LAYER      (LAYTYP)      (LAYAVG)       (CHANI)      (LAYVKA)      (LAYWET)
 ---------------------------------------------------------------------------
    1   CONVERTIBLE      HARMONIC      VARIABLE    VERTICAL K  NON-WETTABLE
    2   CONVERTIBLE      HARMONIC      VARIABLE    VERTICAL K  NON-WETTABLE
    3   CONVERTIBLE      HARMONIC      VARIABLE    VERTICAL K  NON-WETTABLE

 WETTING CAPABILITY IS NOT ACTIVE IN ANY LAYER

    HYD. COND. ALONG ROWS =   10.0000     FOR LAYER   1

   HORIZ. ANI. (COL./ROW) =   1.00000     FOR LAYER   1



                VERTICAL HYD. COND. FOR LAYER   1
 READING ON UNIT   15 WITH FORMAT: (50E15.6)           

    HYD. COND. ALONG ROWS =   10.0000     FOR LAYER   2

   HORIZ. ANI. (COL./ROW) =   1.00000     FOR LAYER   2



                VERTICAL HYD. COND. FOR LAYER   2
 READING ON UNIT   15 WITH FORMAT: (50E15.6)           

    HYD. COND. ALONG ROWS =   10.0000     FOR LAYER   3

   HORIZ. ANI. (COL./ROW) =   1.00000     FOR LAYER   3



                VERTICAL HYD. COND. FOR LAYER   3
 READING ON UNIT   15 WITH FORMAT: (50E15.6)           

 WEL -- WELL PACKAGE, VERSION 7, 5/2/2005 INPUT READ FROM UNIT   20
 # WEL package for  MODFLOW-2005, generated by Flopy.
 No named parameters
 MAXIMUM OF      1 ACTIVE WELLS AT ONE TIME


     0 Well parameters

 EVT -- EVAPOTRANSPIRATION PACKAGE, VERSION 7, 5/2/2005
         INPUT READ FROM UNIT   22
 # EVT package for  MODFLOW-2005, generated by Flopy.
 No named parameters
 OPTION 3 -- EVAPOTRANSPIRATION FROM HIGHEST ACTIVE NODE IN EACH VERTICAL COLUMN
 CELL-BY-CELL FLOWS WILL BE SAVED ON UNIT   53


     0 Evapotranspiration parameters

 RCH -- RECHARGE PACKAGE, VERSION 7, 5/2/2005 INPUT READ FROM UNIT   19
 # RCH package for  MODFLOW-2005, generated by Flopy.
 No named parameters
 OPTION 3 -- RECHARGE TO HIGHEST ACTIVE NODE IN EACH VERTICAL COLUMN


     0 Recharge parameters

 STR -- STREAM PACKAGE, VERSION 7, 5/2/2005 INPUT READ FROM UNIT  118
 # STR package for  MODFLOW-2005, generated by Flopy.
 No named parameters
 MAXIMUM OF     48 ACTIVE STREAM NODES AT ONE TIME
 NUMBER OF STREAM SEGMENTS IS      1
 NUMBER OF STREAM TRIBUTARIES IS      0
 CELL BUDGETS WILL BE SAVED ON UNITS   53 AND   53


     0 Stream parameters

 PCG -- CONJUGATE-GRADIENT SOLUTION PACKAGE, VERSION 7, 5/2/2005
 # PCG package for  MODFLOW-2005, generated by Flopy.
 MAXIMUM OF     50 CALLS OF SOLUTION ROUTINE
 MAXIMUM OF     30 INTERNAL ITERATIONS PER CALL TO SOLUTION ROUTINE
 MATRIX PRECONDITIONING TYPE :    1



                                    SOLUTION BY THE CONJUGATE-GRADIENT METHOD
                                   -------------------------------------------
                    MAXIMUM NUMBER OF CALLS TO PCG ROUTINE =       50
                        MAXIMUM ITERATIONS PER CALL TO PCG =       30
                               MATRIX PRECONDITIONING TYPE =        1
        RELAXATION FACTOR (ONLY USED WITH PRECOND. TYPE 1) =    0.10000E+01
 PARAMETER OF POLYNOMIAL PRECOND. = 2 (2) OR IS CALCULATED :        0
                         HEAD CHANGE CRITERION FOR CLOSURE =    0.10000E-04
                     RESIDUAL CHANGE CRITERION FOR CLOSURE =    0.10000E-04
            PCG HEAD AND RESIDUAL CHANGE PRINTOUT INTERVAL =      999
     PRINTING FROM SOLVER IS LIMITED(1) OR SUPPRESSED (>1) =        3
                            STEADY-STATE DAMPING PARAMETER =    0.10000E+01
                               TRANSIENT DAMPING PARAMETER =    0.10000E+01
1
                            STRESS PERIOD NO.    1, LENGTH =   1.000000    
                            -----------------------------------------------

                              NUMBER OF TIME STEPS =     1

                               MULTIPLIER FOR DELT =     1.000

                            INITIAL TIME STEP SIZE =   1.000000    

 WELL NO.  LAYER   ROW   COL   STRESS RATE         
 --------------------------------------------------
      1      3     21     38      -1500.    

      1 WELL 



                         ET SURFACE
 READING ON UNIT   22 WITH FORMAT: (50E15.6)           



            EVAPOTRANSPIRATION RATE
 READING ON UNIT   22 WITH FORMAT: (50E15.6)           



                   EXTINCTION DEPTH
 READING ON UNIT   22 WITH FORMAT: (50E15.6)           



                           RECHARGE
 READING ON UNIT   19 WITH FORMAT: (50E15.6)           

    LAYER   ROW    COL    SEGMENT   REACH   STREAMFLOW      STREAM    STREAMBED     STREAMBED BOT  STREAMBED TOP
                           NUMBER   NUMBER                   STAGE   CONDUCTANCE      ELEVATION      ELEVATION         
 ----------------------------------------------------------------------------------------------------------------------
       1     26      2        1        0         0.000       98.50      1000.            97.00        98.00    
       1     26      3        1        1         0.000       97.50      1000.            96.00        97.00    
       1     26      4        1        2         0.000       96.50      1000.            95.00        96.00    
       1     26      5        1        3         0.000       95.50      1000.            94.00        95.00    
       1     26      6        1        4         0.000       94.50      1000.            93.00        94.00    
       1     26      7        1        5         0.000       93.50      1000.            92.00        93.00    
       1     26      8        1        6         0.000       92.50      1000.            91.00        92.00    
       1     26      9        1        7         0.000       91.50      1000.            90.00        91.00    
       1     26     10        1        8         0.000       90.50      1000.            89.00        90.00    
       1     26     11        1        9         0.000       89.50      1000.            88.00        89.00    
       1     26     12        1       10         0.000       88.50      1000.            87.00        88.00    
       1     26     13        1       11         0.000       87.50      1000.            86.00        87.00    
       1     26     14        1       12         0.000       86.50      1000.            85.00        86.00    
       1     26     15        1       13         0.000       85.50      1000.            84.00        85.00    
       1     26     16        1       14         0.000       84.50      1000.            83.00        84.00    
       1     26     17        1       15         0.000       83.50      1000.            82.00        83.00    
       1     26     18        1       16         0.000       82.50      1000.            81.00        82.00    
       1     26     19        1       17         0.000       81.50      1000.            80.00        81.00    
       1     26     20        1       18         0.000       80.50      1000.            79.00        80.00    
       1     26     21        1       19         0.000       79.50      1000.            78.00        79.00    
       1     26     22        1       20         0.000       78.50      1000.            77.00        78.00    
       1     26     23        1       21         0.000       77.50      1000.            76.00        77.00    
       1     26     24        1       22         0.000       76.50      1000.            75.00        76.00    
       1     26     25        1       23         0.000       75.50      1000.            74.00        75.00    
       1     26     26        1       24         0.000       75.40      1000.            73.90        74.90    
       1     26     27        1       25         0.000       75.30      1000.            73.80        74.80    
       1     26     28        1       26         0.000       75.20      1000.            73.70        74.70    
       1     26     29        1       27         0.000       75.10      1000.            73.60        74.60    
       1     26     30        1       28         0.000       75.00      1000.            73.50        74.50    
       1     26     31        1       29         0.000       74.90      1000.            73.40        74.40    
       1     26     32        1       30         0.000       74.80      1000.            73.30        74.30    
       1     26     33        1       31         0.000       74.70      1000.            73.20        74.20    
       1     26     34        1       32         0.000       74.60      1000.            73.10        74.10    
       1     26     35        1       33         0.000       74.50      1000.            73.00        74.00    
       1     26     36        1       34         0.000       74.40      1000.            72.90        73.90    
       1     26     37        1       35         0.000       74.30      1000.            72.80        73.80    
       1     26     38        1       36         0.000       74.20      1000.            72.70        73.70    
       1     26     39        1       37         0.000       74.10      1000.            72.60        73.60    
       1     26     40        1       38         0.000       74.00      1000.            72.50        73.50    
       1     26     41        1       39         0.000       73.90      1000.            72.40        73.40    
       1     26     42        1       40         0.000       73.80      1000.            72.30        73.30    
       1     26     43        1       41         0.000       73.70      1000.            72.20        73.20    
       1     26     44        1       42         0.000       73.60      1000.            72.10        73.10    
       1     26     45        1       43         0.000       73.50      1000.            72.00        73.00    
       1     26     46        1       44         0.000       73.40      1000.            71.90        72.90    
       1     26     47        1       45         0.000       73.30      1000.            71.80        72.80    
       1     26     48        1       46         0.000       73.20      1000.            71.70        72.70    
       1     26     49        1       47         0.000       73.10      1000.            71.60        72.60    

     48 STREAM REACHES
 
 SOLVING FOR HEAD 

 OUTPUT CONTROL FOR STRESS PERIOD    1   TIME STEP    1
    PRINT HEAD FOR ALL LAYERS
    PRINT BUDGET
    SAVE HEAD FOR ALL LAYERS
    SAVE BUDGET
 UBDSV2 SAVING "   CONSTANT HEAD" ON UNIT  53 AT TIME STEP  1, STRESS PERIOD   1
 UBDSV1 SAVING "FLOW RIGHT FACE " ON UNIT  53 AT TIME STEP  1, STRESS PERIOD   1
 UBDSV1 SAVING "FLOW FRONT FACE " ON UNIT  53 AT TIME STEP  1, STRESS PERIOD   1
 UBDSV1 SAVING "FLOW LOWER FACE " ON UNIT  53 AT TIME STEP  1, STRESS PERIOD   1
 UBDSV3 SAVING "              ET" ON UNIT  53 AT TIME STEP  1, STRESS PERIOD   1
 UBDSV4 SAVING "  STREAM LEAKAGE" ON UNIT  53 AT TIME STEP  1, STRESS PERIOD   1
 UBDSV4 SAVING "STREAM FLOW OUT " ON UNIT  53 AT TIME STEP  1, STRESS PERIOD   1
1
              HEAD IN LAYER   1 AT END OF TIME STEP   1 IN STRESS PERIOD    1
  ---------------------------------------------------------------------------

            1           2           3           4           5           6           7           8           9          10
           11          12          13          14          15          16          17          18          19          20
           21          22          23          24          25          26          27          28          29          30
           31          32          33          34          35          36          37          38          39          40
           41          42          43          44          45          46          47          48          49          50
 ........................................................................................................................
   1  -1000.0     -1000.0     -1000.0     -1000.0     -1000.0     -1000.0       90.37       90.20       89.92       89.58    
        89.18       88.86       88.47       88.03       87.53       86.98       86.43       85.89       85.34       84.79    
        84.26       83.72       83.19       82.66       82.13       81.61       81.09       80.57       80.06       79.55    
        79.05       78.55       78.06       77.57       77.09       76.60       76.13       75.65       75.18       74.71    
        74.24       73.77       73.31       72.84       72.37       71.91       71.44       70.96       70.49       70.00    
   2  -1000.0     -1000.0     -1000.0     -1000.0     -1000.0       90.64       90.46       90.22       89.92       89.55    
        89.24       88.88       88.48       88.03       87.53       86.98       86.43       85.88       85.33       84.79    
        84.25       83.72       83.18       82.65       82.12       81.60       81.08       80.57       80.05       79.55    
        79.04       78.55       78.05       77.56       77.08       76.60       76.12       75.65       75.17       74.70    
        74.24       73.77       73.30       72.84       72.37       71.90       71.44       70.96       70.48       70.00    
   3  -1000.0     -1000.0     -1000.0     -1000.0       90.91       90.74       90.51       90.24       89.91       89.61    
        89.28       88.91       88.50       88.04       87.53       86.98       86.43       85.87       85.32       84.77    
        84.24       83.70       83.17       82.64       82.11       81.59       81.06       80.55       80.04       79.53    
        79.03       78.53       78.04       77.55       77.07       76.58       76.11       75.63       75.16       74.69    
        74.23       73.76       73.30       72.83       72.37       71.90       71.43       70.96       70.48       70.00    
   4  -1000.0     -1000.0     -1000.0       91.17       91.00       90.79       90.54       90.24       89.96       89.66    
        89.31       88.93       88.51       88.04       87.53       86.97       86.41       85.86       85.31       84.76    
        84.22       83.68       83.15       82.61       82.09       81.56       81.04       80.52       80.01       79.51    
        79.01       78.51       78.02       77.53       77.05       76.57       76.09       75.62       75.15       74.68    
        74.21       73.75       73.29       72.82       72.36       71.89       71.43       70.96       70.48       70.00    
   5  -1000.0     -1000.0       91.39       91.24       91.05       90.82       90.55       90.29       90.01       89.69    
        89.34       88.95       88.51       88.04       87.52       86.96       86.40       85.84       85.28       84.73    
        84.19       83.65       83.12       82.58       82.05       81.53       81.01       80.49       79.98       79.48    
        78.97       78.48       77.99       77.50       77.02       76.54       76.06       75.59       75.13       74.66    
        74.20       73.73       73.27       72.81       72.35       71.89       71.42       70.95       70.48       70.00    
   6  -1000.0       91.56       91.44       91.28       91.08       90.83       90.60       90.34       90.05       89.72    
        89.36       88.96       88.52       88.03       87.51       86.94       86.38       85.81       85.26       84.70    
        84.16       83.62       83.08       82.54       82.01       81.49       80.97       80.45       79.94       79.43    
        78.93       78.44       77.95       77.46       76.98       76.51       76.03       75.56       75.10       74.64    
        74.17       73.71       73.26       72.80       72.34       71.88       71.41       70.95       70.48       70.00    
   7    91.66       91.59       91.46       91.29       91.07       90.87       90.64       90.37       90.07       89.74    
        89.37       88.96       88.51       88.02       87.49       86.92       86.35       85.78       85.22       84.66    
        84.12       83.57       83.03       82.50       81.97       81.44       80.92       80.40       79.89       79.39    
        78.89       78.39       77.90       77.42       76.94       76.47       76.00       75.53       75.07       74.61    
        74.15       73.69       73.23       72.78       72.32       71.87       71.41       70.94       70.47       70.00    
   8    91.65       91.58       91.45       91.27       91.10       90.90       90.66       90.39       90.09       89.75    
        89.37       88.96       88.50       88.01       87.47       86.89       86.31       85.74       85.18       84.61    
        84.07       83.52       82.98       82.44       81.91       81.38       80.86       80.34       79.83       79.33    
        78.83       78.34       77.85       77.37       76.89       76.42       75.95       75.49       75.03       74.57    
        74.12       73.66       73.21       72.76       72.31       71.85       71.40       70.94       70.47       70.00    
   9    91.63       91.56       91.43       91.29       91.12       90.92       90.68       90.40       90.10       89.75    
        89.37       88.94       88.48       87.98       87.44       86.85       86.27       85.70       85.12       84.56    
        84.01       83.46       82.91       82.37       81.84       81.31       80.79       80.27       79.76       79.26    
        78.76       78.27       77.79       77.31       76.83       76.37       75.90       75.44       74.98       74.53    
        74.08       73.63       73.18       72.74       72.29       71.84       71.38       70.93       70.47       70.00    
  10    91.59       91.52       91.43       91.29       91.13       90.92       90.68       90.41       90.09       89.74    
        89.35       88.92       88.46       87.95       87.40       86.81       86.22       85.64       85.06       84.49    
        83.94       83.39       82.84       82.30       81.76       81.23       80.71       80.19       79.69       79.18    
        78.69       78.20       77.72       77.24       76.77       76.30       75.84       75.39       74.94       74.49    
        74.04       73.60       73.15       72.71       72.27       71.82       71.37       70.92       70.46       70.00    
  11    91.56       91.51       91.42       91.29       91.13       90.92       90.68       90.40       90.08       89.73    
        89.33       88.90       88.42       87.91       87.35       86.75       86.16       85.58       84.99       84.42    
        83.86       83.30       82.75       82.21       81.67       81.14       80.62       80.10       79.60       79.10    
        78.60       78.12       77.64       77.16       76.70       76.23       75.78       75.33       74.88       74.44    
        74.00       73.56       73.12       72.68       72.24       71.80       71.36       70.91       70.46       70.00    
  12    91.54       91.50       91.41       91.28       91.12       90.91       90.67       90.38       90.06       89.70    
        89.30       88.86       88.38       87.86       87.30       86.69       86.09       85.50       84.91       84.33    
        83.77       83.21       82.66       82.11       81.57       81.04       80.52       80.00       79.50       79.00    
        78.51       78.02       77.55       77.08       76.62       76.16       75.71       75.26       74.82       74.38    
        73.95       73.52       73.09       72.65       72.22       71.78       71.35       70.90       70.45       70.00    
  13    91.53       91.48       91.40       91.27       91.10       90.90       90.65       90.36       90.04       89.67    
        89.27       88.82       88.33       87.80       87.23       86.62       86.02       85.42       84.82       84.24    
        83.67       83.10       82.54       82.00       81.45       80.92       80.40       79.89       79.38       78.89    
        78.40       77.92       77.45       76.98       76.53       76.07       75.63       75.19       74.75       74.32    
        73.90       73.47       73.05       72.62       72.20       71.77       71.33       70.89       70.45       70.00    
  14    91.51       91.47       91.38       91.25       91.09       90.88       90.63       90.34       90.01       89.64    
        89.22       88.77       88.27       87.74       87.16       86.54       85.93       85.32       84.72       84.13    
        83.55       82.98       82.42       81.87       81.32       80.79       80.27       79.76       79.26       78.77    
        78.28       77.81       77.34       76.88       76.43       75.98       75.54       75.11       74.68       74.26    
        73.84       73.43       73.01       72.59       72.17       71.75       71.32       70.89       70.45       70.00    
  15    91.49       91.45       91.36       91.24       91.07       90.86       90.60       90.31       89.97       89.59    
        89.18       88.71       88.21       87.67       87.08       86.45       85.83       85.21       84.61       84.01    
        83.42       82.85       82.28       81.72       81.18       80.65       80.12       79.62       79.12       78.63    
        78.15       77.68       77.22       76.77       76.32       75.88       75.45       75.02       74.61       74.19    
        73.79       73.38       72.97       72.56       72.15       71.73       71.31       70.88       70.44       70.00    
  16    91.47       91.43       91.34       91.21       91.04       90.83       90.57       90.27       89.93       89.55    
        89.12       88.65       88.14       87.59       86.99       86.35       85.72       85.10       84.48       83.87    
        83.28       82.69       82.12       81.56       81.01       80.48       79.96       79.45       78.96       78.48    
        78.01       77.54       77.09       76.64       76.20       75.77       75.35       74.93       74.53       74.13    
        73.73       73.33       72.94       72.54       72.13       71.72       71.30       70.88       70.44       70.00    
  17    91.45       91.41       91.32       91.19       91.02       90.80       90.54       90.24       89.89       89.50    
        89.06       88.59       88.06       87.50       86.89       86.24       85.60       84.96       84.34       83.72    
        83.12       82.52       81.94       81.37       80.83       80.29       79.78       79.27       78.79       78.31    
        77.85       77.39       76.95       76.51       76.08       75.65       75.24       74.84       74.44       74.05    
        73.67       73.29       72.91       72.52       72.12       71.72       71.30       70.88       70.44       70.00    
  18    91.43       91.39       91.30       91.17       90.99       90.77       90.51       90.20       89.84       89.45    
        89.00       88.51       87.98       87.40       86.79       86.12       85.47       84.82       84.18       83.55    
        82.93       82.33       81.74       81.16       80.61       80.08       79.56       79.07       78.59       78.13    
        77.67       77.23       76.80       76.37       75.95       75.53       75.13       74.74       74.36       73.99    
        73.62       73.25       72.88       72.51       72.12       71.72       71.31       70.88       70.45       70.00    
  19    91.41       91.37       91.28       91.14       90.97       90.74       90.47       90.16       89.80       89.39    
        88.94       88.44       87.89       87.30       86.67       85.99       85.32       84.66       84.01       83.37    
        82.73       82.11       81.50       80.92       80.36       79.83       79.32       78.84       78.37       77.92    
        77.48       77.05       76.63       76.22       75.81       75.41       75.01       74.64       74.27       73.92    
        73.58       73.23       72.87       72.51       72.13       71.74       71.33       70.90       70.46       70.00    
  20    91.39       91.35       91.26       91.12       90.94       90.71       90.44       90.12       89.75       89.33    
        88.87       88.36       87.80       87.20       86.55       85.85       85.16       84.48       83.81       83.16    
        82.50       81.85       81.23       80.63       80.07       79.54       79.04       78.57       78.12       77.69    
        77.27       76.86       76.46       76.06       75.67       75.28       74.90       74.54       74.20       73.87    
        73.55       73.22       72.88       72.53       72.16       71.77       71.36       70.93       70.47       70.00    
  21    91.38       91.33       91.24       91.10       90.92       90.69       90.41       90.08       89.70       89.28    
        88.80       88.28       87.71       87.08       86.41       85.70       84.99       84.29       83.60       82.93    
        82.23       81.56       80.91       80.29       79.72       79.20       78.71       78.26       77.83       77.43    
        77.03       76.65       76.27       75.90       75.53       75.16       74.80       74.46       74.14       73.84    
        73.53       73.23       72.91       72.57       72.22       71.84       71.43       70.98       70.50       70.00    
  22    91.36       91.31       91.22       91.08       90.89       90.66       90.38       90.04       89.66       89.23    
        88.74       88.20       87.61       86.97       86.27       85.54       84.80       84.07       83.36       82.67    
        81.93       81.21       80.52       79.88       79.29       78.78       78.32       77.90       77.50       77.13    
        76.76       76.41       76.06       75.72       75.38       75.05       74.72       74.40       74.11       73.83    
        73.55       73.26       72.96       72.65       72.31       71.94       71.53       71.07       70.56       70.00    
  23    91.35       91.30       91.21       91.07       90.88       90.64       90.35       90.01       89.62       89.18    
        88.68       88.13       87.51       86.85       86.13       85.36       84.60       83.84       83.10       82.39    
        81.57       80.79       80.05       79.36       78.74       78.25       77.84       77.46       77.11       76.78    
        76.46       76.14       75.84       75.53       75.23       74.93       74.64       74.36       74.10       73.84    
        73.58       73.32       73.05       72.76       72.45       72.09       71.69       71.22       70.65       70.00    
  24    91.34       91.29       91.19       91.05       90.86       90.62       90.33       89.99       89.59       89.14    
        88.63       88.06       87.42       86.73       85.98       85.18       84.37       83.58       82.81       82.06    
        81.15       80.28       79.48       78.74       78.10       77.62       77.25       76.93       76.65       76.37    
        76.10       75.84       75.58       75.32       75.07       74.81       74.56       74.32       74.09       73.87    
        73.64       73.41       73.17       72.92       72.64       72.33       71.95       71.47       70.83       70.00    
  25    91.33       91.28       91.19       91.04       90.85       90.61       90.32       89.97       89.57       89.11    
        88.59       88.00       87.33       86.62       85.84       84.99       84.14       83.29       82.47       81.70    
        80.63       79.69       78.81       78.01       77.34       76.89       76.58       76.32       76.09       75.88    
        75.68       75.47       75.28       75.08       74.87       74.67       74.48       74.28       74.09       73.91    
        73.72       73.54       73.34       73.14       72.91       72.66       72.34       71.91       71.22       70.00    
  26    91.33       91.28       91.18       91.04       90.85       90.61       90.31       89.97       89.57       89.10    
        88.57       87.96       87.23       86.54       85.70       84.79       83.89       82.98       82.10       81.28    
        80.02       79.00       78.04       77.13       76.33       76.01       75.81       75.64       75.49       75.34    
        75.20       75.06       74.92       74.78       74.64       74.50       74.37       74.23       74.10       73.96    
        73.83       73.69       73.55       73.41       73.27       73.11       72.92       72.67       72.14       70.00    
  27    91.33       91.28       91.18       91.04       90.85       90.61       90.32       89.97       89.57       89.11    
        88.59       88.00       87.33       86.62       85.84       84.99       84.14       83.29       82.47       81.70    
        80.64       79.69       78.81       78.01       77.35       76.90       76.59       76.33       76.11       75.90    
        75.70       75.51       75.31       75.12       74.93       74.74       74.55       74.36       74.16       73.97    
        73.78       73.59       73.38       73.17       72.94       72.68       72.36       71.92       71.22       70.00    
  28    91.33       91.28       91.19       91.05       90.86       90.62       90.33       89.98       89.59       89.14    
        88.62       88.05       87.42       86.73       85.98       85.18       84.37       83.58       82.81       82.07    
        81.15       80.29       79.48       78.75       78.12       77.64       77.27       76.96       76.68       76.41    
        76.16       75.90       75.66       75.42       75.18       74.94       74.70       74.47       74.23       74.00    
        73.76       73.51       73.26       72.99       72.70       72.37       71.98       71.49       70.84       70.00    
  29    91.34       91.29       91.20       91.05       90.87       90.63       90.34       90.00       89.62       89.17    
        88.67       88.12       87.51       86.84       86.13       85.36       84.60       83.84       83.10       82.39    
        81.58       80.80       80.06       79.37       78.76       78.28       77.87       77.50       77.16       76.84    
        76.54       76.24       75.95       75.67       75.39       75.12       74.84       74.57       74.30       74.03    
        73.75       73.46       73.17       72.86       72.52       72.15       71.74       71.25       70.67       70.00    
  30    91.35       91.30       91.21       91.07       90.88       90.65       90.36       90.03       89.65       89.22    
        88.73       88.19       87.60       86.96       86.27       85.53       84.80       84.08       83.37       82.68    
        81.94       81.22       80.54       79.90       79.32       78.81       78.36       77.95       77.57       77.21    
        76.87       76.53       76.21       75.89       75.58       75.28       74.97       74.67       74.37       74.06    
        73.75       73.44       73.11       72.77       72.41       72.01       71.58       71.11       70.57       70.00    
  31    91.36       91.31       91.22       91.08       90.90       90.67       90.39       90.06       89.69       89.27    
        88.79       88.27       87.70       87.07       86.41       85.69       84.99       84.29       83.60       82.94    
        82.24       81.57       80.93       80.32       79.76       79.24       78.77       78.33       77.92       77.52    
        77.15       76.79       76.44       76.09       75.76       75.42       75.09       74.76       74.43       74.10    
        73.77       73.43       73.08       72.71       72.33       71.92       71.49       71.02       70.52       70.00    
  32    91.37       91.33       91.24       91.10       90.92       90.69       90.42       90.10       89.73       89.32    
        88.85       88.34       87.79       87.18       86.54       85.85       85.16       84.48       83.82       83.17    
        82.51       81.87       81.25       80.66       80.11       79.59       79.10       78.64       78.21       77.80    
        77.40       77.01       76.64       76.27       75.91       75.55       75.20       74.85       74.50       74.15    
        73.79       73.43       73.06       72.68       72.28       71.87       71.43       70.98       70.50       70.00    
  33    91.39       91.34       91.25       91.12       90.94       90.72       90.45       90.13       89.77       89.37    
        88.92       88.42       87.88       87.29       86.66       85.98       85.32       84.66       84.01       83.37    
        82.74       82.12       81.53       80.95       80.40       79.88       79.39       78.92       78.47       78.03    
        77.62       77.21       76.82       76.43       76.05       75.68       75.30       74.93       74.57       74.20    
        73.82       73.44       73.06       72.66       72.26       71.84       71.40       70.95       70.48       70.00    
  34    91.40       91.36       91.27       91.14       90.96       90.74       90.48       90.17       89.82       89.42    
        88.98       88.49       87.96       87.39       86.77       86.11       85.46       84.82       84.18       83.56    
        82.95       82.35       81.76       81.20       80.65       80.13       79.63       79.15       78.69       78.24    
        77.81       77.39       76.98       76.58       76.18       75.79       75.40       75.01       74.63       74.24    
        73.86       73.46       73.07       72.66       72.25       71.82       71.38       70.93       70.47       70.00    
  35    91.42       91.38       91.29       91.16       90.98       90.77       90.51       90.21       89.86       89.47    
        89.04       88.56       88.04       87.48       86.88       86.23       85.59       84.96       84.34       83.73    
        83.13       82.54       81.97       81.41       80.87       80.35       79.84       79.35       78.88       78.43    
        77.98       77.55       77.12       76.71       76.30       75.89       75.49       75.09       74.69       74.29    
        73.89       73.49       73.08       72.67       72.25       71.81       71.38       70.93       70.47       70.00    
  36    91.43       91.39       91.31       91.18       91.01       90.79       90.54       90.24       89.90       89.52    
        89.09       88.62       88.11       87.56       86.97       86.34       85.71       85.09       84.48       83.87    
        83.29       82.71       82.15       81.59       81.06       80.53       80.03       79.53       79.06       78.59    
        78.13       77.69       77.25       76.83       76.40       75.99       75.57       75.16       74.75       74.34    
        73.93       73.52       73.10       72.68       72.25       71.82       71.37       70.92       70.47       70.00    
  37    91.45       91.41       91.32       91.19       91.02       90.81       90.56       90.27       89.93       89.56    
        89.14       88.68       88.18       87.64       87.06       86.43       85.82       85.20       84.60       84.01    
        83.43       82.86       82.30       81.75       81.22       80.70       80.19       79.69       79.21       78.73    
        78.27       77.82       77.37       76.93       76.50       76.08       75.65       75.23       74.81       74.39    
        73.97       73.55       73.12       72.69       72.26       71.82       71.38       70.93       70.47       70.00    
  38    91.46       91.42       91.34       91.21       91.04       90.83       90.58       90.29       89.96       89.59    
        89.18       88.73       88.24       87.71       87.13       86.52       85.91       85.31       84.71       84.13    
        83.56       82.99       82.44       81.90       81.36       80.84       80.33       79.83       79.34       78.86    
        78.39       77.93       77.48       77.03       76.59       76.16       75.72       75.29       74.86       74.44    
        74.01       73.58       73.15       72.71       72.27       71.83       71.38       70.93       70.47       70.00    
  39    91.48       91.43       91.35       91.22       91.05       90.84       90.60       90.31       89.99       89.62    
        89.22       88.78       88.29       87.77       87.20       86.60       85.99       85.40       84.81       84.23    
        83.67       83.11       82.56       82.02       81.49       80.97       80.45       79.95       79.46       78.98    
        78.50       78.03       77.58       77.12       76.67       76.23       75.79       75.35       74.92       74.48    
        74.05       73.61       73.17       72.73       72.29       71.84       71.39       70.93       70.47       70.00    
  40    91.49       91.45       91.36       91.23       91.06       90.85       90.61       90.33       90.01       89.65    
        89.25       88.81       88.34       87.82       87.26       86.66       86.07       85.48       84.90       84.32    
        83.77       83.21       82.67       82.13       81.60       81.08       80.56       80.06       79.56       79.08    
        78.60       78.13       77.66       77.20       76.75       76.30       75.85       75.41       74.96       74.52    
        74.08       73.64       73.20       72.75       72.30       71.85       71.40       70.94       70.47       70.00    
  41    91.53       91.46       91.36       91.23       91.06       90.85       90.61       90.33       90.02       89.66    
        89.27       88.84       88.37       87.86       87.31       86.72       86.13       85.55       84.97       84.41    
        83.85       83.30       82.76       82.22       81.69       81.17       80.66       80.15       79.66       79.17    
        78.68       78.21       77.74       77.27       76.81       76.36       75.90       75.45       75.01       74.56    
        74.11       73.67       73.22       72.77       72.32       71.86       71.41       70.94       70.48       70.00    
  42    91.56       91.49       91.36       91.22       91.05       90.85       90.61       90.33       90.02       89.67    
        89.29       88.86       88.40       87.90       87.35       86.77       86.19       85.61       85.04       84.48    
        83.93       83.38       82.84       82.31       81.78       81.26       80.74       80.24       79.74       79.24    
        78.76       78.28       77.80       77.34       76.87       76.41       75.95       75.50       75.05       74.59    
        74.14       73.69       73.24       72.79       72.33       71.88       71.41       70.95       70.48       70.00    
  43    91.58       91.51       91.39       91.20       91.03       90.83       90.59       90.32       90.01       89.67    
        89.29       88.88       88.42       87.93       87.39       86.81       86.23       85.66       85.10       84.54    
        83.99       83.45       82.91       82.38       81.85       81.33       80.82       80.31       79.81       79.31    
        78.82       78.34       77.86       77.39       76.92       76.46       76.00       75.54       75.08       74.63    
        74.17       73.72       73.26       72.80       72.35       71.89       71.42       70.95       70.48       70.00    
  44    91.59       91.52       91.39       91.22       91.00       90.80       90.56       90.30       90.00       89.66    
        89.29       88.88       88.43       87.95       87.41       86.84       86.27       85.71       85.14       84.59    
        84.04       83.51       82.97       82.44       81.91       81.39       80.88       80.37       79.87       79.37    
        78.88       78.40       77.91       77.44       76.97       76.50       76.03       75.57       75.11       74.65    
        74.20       73.74       73.28       72.82       72.36       71.90       71.43       70.96       70.48       70.00    
  45  -1000.0       91.49       91.37       91.21       91.01       90.75       90.53       90.27       89.97       89.65    
        89.28       88.88       88.44       87.96       87.43       86.87       86.30       85.74       85.18       84.63    
        84.09       83.55       83.02       82.49       81.96       81.44       80.93       80.42       79.92       79.42    
        78.93       78.44       77.96       77.48       77.01       76.54       76.07       75.60       75.14       74.68    
        74.22       73.76       73.29       72.83       72.37       71.90       71.44       70.96       70.48       70.00    
  46  -1000.0     -1000.0       91.32       91.17       90.98       90.75       90.47       90.22       89.94       89.62    
        89.27       88.87       88.44       87.96       87.45       86.88       86.33       85.77       85.21       84.66    
        84.13       83.59       83.06       82.53       82.01       81.49       80.97       80.46       79.96       79.46    
        78.97       78.48       77.99       77.51       77.04       76.56       76.09       75.63       75.16       74.70    
        74.23       73.77       73.31       72.84       72.38       71.91       71.44       70.97       70.49       70.00    
  47  -1000.0     -1000.0     -1000.0       91.10       90.93       90.72       90.47       90.16       89.89       89.58    
        89.24       88.86       88.43       87.97       87.45       86.90       86.34       85.79       85.24       84.69    
        84.15       83.62       83.09       82.56       82.04       81.52       81.01       80.50       79.99       79.49    
        79.00       78.51       78.02       77.54       77.06       76.59       76.12       75.65       75.18       74.71    
        74.25       73.78       73.32       72.85       72.39       71.92       71.45       70.97       70.49       70.00    
  48  -1000.0     -1000.0     -1000.0     -1000.0       90.84       90.66       90.44       90.17       89.83       89.54    
        89.21       88.84       88.42       87.96       87.46       86.91       86.35       85.80       85.26       84.71    
        84.18       83.64       83.11       82.59       82.06       81.55       81.03       80.52       80.02       79.52    
        79.02       78.53       78.04       77.56       77.08       76.61       76.13       75.66       75.19       74.73    
        74.26       73.79       73.33       72.86       72.39       71.92       71.45       70.97       70.49       70.00    
  49  -1000.0     -1000.0     -1000.0     -1000.0     -1000.0       90.57       90.39       90.15       89.85       89.48    
        89.16       88.81       88.41       87.96       87.46       86.91       86.36       85.81       85.27       84.72    
        84.19       83.66       83.13       82.60       82.08       81.56       81.05       80.54       80.03       79.53    
        79.04       78.54       78.06       77.57       77.09       76.62       76.14       75.67       75.20       74.73    
        74.27       73.80       73.33       72.86       72.40       71.92       71.45       70.97       70.49       70.00    
  50  -1000.0     -1000.0     -1000.0     -1000.0     -1000.0     -1000.0       90.30       90.13       89.84       89.51    
        89.11       88.79       88.40       87.96       87.46       86.91       86.37       85.82       85.27       84.73    
        84.20       83.67       83.14       82.61       82.09       81.57       81.06       80.55       80.04       79.54    
        79.04       78.55       78.06       77.58       77.10       76.62       76.15       75.68       75.21       74.74    
        74.27       73.80       73.33       72.87       72.40       71.93       71.45       70.97       70.49       70.00    
1
              HEAD IN LAYER   2 AT END OF TIME STEP   1 IN STRESS PERIOD    1
  ---------------------------------------------------------------------------

            1           2           3           4           5           6           7           8           9          10
           11          12          13          14          15          16          17          18          19          20
           21          22          23          24          25          26          27          28          29          30
           31          32          33          34          35          36          37          38          39          40
           41          42          43          44          45          46          47          48          49          50
 ........................................................................................................................
   1  -1000.0     -1000.0     -1000.0     -1000.0     -1000.0     -1000.0     -1000.0     -1000.0       89.92       89.58    
        89.18       88.86       88.47       88.03       87.53       86.98       86.43       85.89       85.34       84.79    
        84.25       83.70       83.17       82.63       82.10       81.58       81.06       80.54       80.03       79.52    
        79.02       78.52       78.03       77.54       77.05       76.57       76.09       75.62       75.15       74.68    
        74.21       73.74       73.28       72.81       72.35       71.88       71.41       70.94       70.47       70.00    
   2  -1000.0     -1000.0     -1000.0     -1000.0     -1000.0     -1000.0     -1000.0       90.22       89.92       89.55    
        89.24       88.88       88.48       88.03       87.53       86.98       86.43       85.88       85.33       84.79    
        84.24       83.70       83.16       82.62       82.09       81.57       81.05       80.53       80.02       79.51    
        79.01       78.51       78.02       77.53       77.05       76.56       76.09       75.61       75.14       74.67    
        74.20       73.74       73.27       72.81       72.34       71.88       71.41       70.94       70.47       70.00    
   3  -1000.0     -1000.0     -1000.0     -1000.0     -1000.0     -1000.0       90.51       90.24       89.91       89.61    
        89.28       88.91       88.50       88.04       87.53       86.98       86.43       85.87       85.32       84.77    
        84.23       83.68       83.14       82.61       82.08       81.55       81.03       80.52       80.00       79.50    
        78.99       78.50       78.00       77.52       77.03       76.55       76.07       75.60       75.13       74.66    
        74.20       73.73       73.27       72.80       72.34       71.87       71.41       70.94       70.47       70.00    
   4  -1000.0     -1000.0     -1000.0     -1000.0     -1000.0       90.79       90.54       90.24       89.96       89.66    
        89.31       88.93       88.51       88.04       87.53       86.97       86.41       85.86       85.31       84.76    
        84.21       83.66       83.12       82.59       82.06       81.53       81.01       80.49       79.98       79.47    
        78.97       78.47       77.98       77.49       77.01       76.53       76.06       75.58       75.11       74.65    
        74.18       73.72       73.26       72.79       72.33       71.87       71.40       70.94       70.47       70.00    
   5  -1000.0     -1000.0     -1000.0     -1000.0       91.05       90.82       90.55       90.29       90.01       89.69    
        89.34       88.95       88.51       88.04       87.52       86.96       86.40       85.84       85.28       84.73    
        84.18       83.63       83.09       82.56       82.02       81.50       80.98       80.46       79.95       79.44    
        78.94       78.44       77.95       77.47       76.98       76.51       76.03       75.56       75.09       74.63    
        74.16       73.70       73.24       72.78       72.32       71.86       71.40       70.93       70.47       70.00    
   6  -1000.0     -1000.0     -1000.0       91.28       91.08       90.83       90.60       90.34       90.05       89.72    
        89.36       88.96       88.52       88.03       87.51       86.94       86.38       85.81       85.26       84.70    
        84.15       83.60       83.05       82.52       81.98       81.46       80.93       80.42       79.91       79.40    
        78.90       78.41       77.92       77.43       76.95       76.47       76.00       75.53       75.07       74.60    
        74.14       73.68       73.22       72.77       72.31       71.85       71.39       70.93       70.47       70.00    
   7  -1000.0     -1000.0       91.46       91.29       91.07       90.87       90.64       90.37       90.07       89.74    
        89.37       88.96       88.51       88.02       87.49       86.92       86.35       85.78       85.22       84.66    
        84.10       83.55       83.01       82.47       81.94       81.41       80.88       80.37       79.86       79.35    
        78.85       78.36       77.87       77.39       76.91       76.43       75.96       75.50       75.03       74.57    
        74.12       73.66       73.20       72.75       72.29       71.84       71.38       70.92       70.46       70.00    
   8  -1000.0       91.58       91.45       91.27       91.10       90.90       90.66       90.39       90.09       89.75    
        89.37       88.96       88.50       88.01       87.47       86.89       86.31       85.74       85.18       84.61    
        84.05       83.50       82.95       82.41       81.88       81.35       80.83       80.31       79.80       79.29    
        78.80       78.30       77.82       77.33       76.86       76.39       75.92       75.46       75.00       74.54    
        74.08       73.63       73.18       72.73       72.28       71.83       71.37       70.92       70.46       70.00    
   9    91.63       91.56       91.42       91.29       91.12       90.92       90.68       90.40       90.10       89.75    
        89.37       88.94       88.48       87.98       87.44       86.85       86.27       85.70       85.12       84.56    
        83.99       83.44       82.89       82.35       81.81       81.28       80.76       80.24       79.73       79.23    
        78.73       78.24       77.75       77.27       76.80       76.33       75.87       75.41       74.95       74.50    
        74.05       73.60       73.15       72.71       72.26       71.81       71.36       70.91       70.46       70.00    
  10    91.59       91.52       91.43       91.29       91.13       90.92       90.68       90.41       90.09       89.74    
        89.35       88.92       88.46       87.95       87.40       86.81       86.22       85.64       85.06       84.49    
        83.93       83.37       82.81       82.27       81.73       81.20       80.68       80.16       79.65       79.15    
        78.66       78.17       77.68       77.21       76.74       76.27       75.81       75.35       74.90       74.45    
        74.01       73.56       73.12       72.68       72.24       71.79       71.35       70.90       70.45       70.00    
  11    91.56       91.51       91.42       91.29       91.13       90.92       90.68       90.40       90.08       89.73    
        89.33       88.90       88.42       87.91       87.35       86.75       86.16       85.58       84.99       84.42    
        83.85       83.28       82.73       82.18       81.64       81.11       80.59       80.07       79.56       79.06    
        78.57       78.08       77.60       77.13       76.66       76.20       75.74       75.29       74.85       74.40    
        73.96       73.53       73.09       72.65       72.22       71.78       71.34       70.89       70.45       70.00    
  12    91.54       91.50       91.41       91.28       91.12       90.91       90.67       90.38       90.06       89.70    
        89.30       88.86       88.38       87.86       87.30       86.69       86.09       85.50       84.91       84.33    
        83.76       83.19       82.63       82.08       81.54       81.01       80.49       79.97       79.47       78.97    
        78.48       77.99       77.51       77.04       76.58       76.12       75.67       75.22       74.78       74.35    
        73.91       73.48       73.05       72.62       72.19       71.76       71.32       70.88       70.44       70.00    
  13    91.53       91.48       91.40       91.27       91.10       90.90       90.65       90.36       90.04       89.67    
        89.27       88.82       88.33       87.80       87.23       86.62       86.02       85.42       84.82       84.24    
        83.66       83.09       82.52       81.97       81.43       80.90       80.38       79.86       79.36       78.86    
        78.37       77.89       77.42       76.95       76.49       76.03       75.59       75.15       74.71       74.28    
        73.86       73.44       73.01       72.59       72.17       71.74       71.31       70.88       70.44       70.00    
  14    91.51       91.47       91.38       91.25       91.09       90.88       90.63       90.34       90.01       89.64    
        89.22       88.77       88.27       87.74       87.16       86.54       85.93       85.32       84.72       84.13    
        83.54       82.97       82.40       81.85       81.30       80.77       80.25       79.74       79.23       78.74    
        78.26       77.78       77.31       76.84       76.39       75.94       75.50       75.06       74.64       74.22    
        73.80       73.39       72.97       72.56       72.14       71.72       71.30       70.87       70.44       70.00    
  15    91.49       91.45       91.36       91.24       91.07       90.86       90.60       90.31       89.97       89.59    
        89.18       88.71       88.21       87.67       87.08       86.45       85.83       85.21       84.61       84.01    
        83.41       82.83       82.27       81.71       81.16       80.63       80.11       79.60       79.10       78.61    
        78.13       77.66       77.19       76.73       76.28       75.83       75.40       74.97       74.55       74.14    
        73.74       73.33       72.93       72.53       72.12       71.70       71.28       70.86       70.43       70.00    
  16    91.47       91.43       91.34       91.21       91.04       90.83       90.57       90.27       89.93       89.55    
        89.12       88.65       88.14       87.59       86.99       86.35       85.72       85.10       84.48       83.87    
        83.27       82.69       82.11       81.55       81.01       80.48       79.96       79.45       78.95       78.47    
        77.99       77.52       77.06       76.60       76.16       75.71       75.28       74.86       74.46       74.06    
        73.67       73.28       72.89       72.50       72.10       71.69       71.27       70.85       70.43       70.00    
  17    91.45       91.41       91.32       91.19       91.02       90.80       90.54       90.24       89.89       89.50    
        89.06       88.59       88.06       87.50       86.89       86.24       85.60       84.96       84.34       83.72    
        83.11       82.52       81.94       81.38       80.83       80.30       79.79       79.28       78.79       78.31    
        77.84       77.38       76.92       76.47       76.02       75.58       75.16       74.74       74.35       73.97    
        73.60       73.23       72.85       72.47       72.08       71.68       71.27       70.85       70.43       70.00    
  18    91.43       91.39       91.30       91.17       90.99       90.77       90.51       90.20       89.84       89.45    
        89.00       88.51       87.98       87.40       86.79       86.12       85.47       84.82       84.18       83.55    
        82.94       82.34       81.75       81.19       80.64       80.11       79.60       79.10       78.62       78.15    
        77.68       77.23       76.78       76.33       75.88       75.44       75.01       74.61       74.23       73.88    
        73.53       73.18       72.82       72.45       72.07       71.67       71.27       70.85       70.43       70.00    
  19    91.41       91.37       91.28       91.14       90.97       90.74       90.47       90.16       89.80       89.39    
        88.94       88.44       87.89       87.30       86.67       85.99       85.32       84.66       84.01       83.37    
        82.74       82.13       81.54       80.97       80.42       79.90       79.39       78.90       78.43       77.96    
        77.51       77.07       76.62       76.18       75.74       75.29       74.85       74.44       74.10       73.78    
        73.46       73.14       72.80       72.44       72.07       71.68       71.28       70.86       70.44       70.00    
  20    91.39       91.35       91.26       91.12       90.94       90.71       90.44       90.12       89.75       89.33    
        88.87       88.36       87.80       87.20       86.55       85.85       85.16       84.48       83.81       83.16    
        82.52       81.90       81.30       80.73       80.18       79.66       79.16       78.68       78.22       77.77    
        77.33       76.90       76.47       76.04       75.60       75.14       74.68       74.24       73.95       73.69    
        73.41       73.11       72.79       72.44       72.08       71.70       71.30       70.88       70.45       70.00    
  21    91.38       91.33       91.24       91.10       90.92       90.69       90.41       90.08       89.70       89.28    
        88.80       88.28       87.71       87.08       86.41       85.70       84.99       84.29       83.60       82.93    
        82.27       81.64       81.03       80.45       79.91       79.39       78.90       78.44       77.99       77.56    
        77.14       76.73       76.32       75.90       75.47       75.02       74.53       74.03       73.84       73.63    
        73.38       73.10       72.80       72.47       72.12       71.74       71.34       70.91       70.46       70.00    
  22    91.36       91.31       91.22       91.08       90.89       90.66       90.38       90.04       89.66       89.23    
        88.74       88.20       87.61       86.97       86.27       85.54       84.80       84.07       83.36       82.67    
        82.00       81.35       80.73       80.15       79.59       79.09       78.61       78.17       77.75       77.34    
        76.95       76.55       76.16       75.77       75.37       74.95       74.53       74.13       73.87       73.64    
        73.40       73.13       72.83       72.51       72.17       71.80       71.40       70.96       70.49       70.00    
  23    91.35       91.30       91.21       91.07       90.88       90.64       90.35       90.01       89.62       89.18    
        88.68       88.13       87.51       86.85       86.13       85.36       84.60       83.84       83.10       82.39    
        81.70       81.04       80.40       79.80       79.25       78.75       78.30       77.88       77.48       77.11    
        76.74       76.38       76.01       75.65       75.29       74.92       74.55       74.22       73.94       73.69    
        73.44       73.18       72.89       72.59       72.26       71.89       71.49       71.05       70.54       70.00    
  24    91.34       91.29       91.19       91.05       90.86       90.62       90.33       89.99       89.59       89.14    
        88.63       88.06       87.42       86.73       85.98       85.18       84.37       83.58       82.81       82.06    
        81.37       80.69       80.04       79.43       78.87       78.39       77.96       77.57       77.21       76.86    
        76.53       76.20       75.87       75.54       75.21       74.89       74.57       74.27       74.00       73.75    
        73.50       73.24       72.97       72.68       72.37       72.02       71.63       71.17       70.63       70.00    
  25    91.33       91.28       91.19       91.04       90.85       90.61       90.32       89.97       89.57       89.11    
        88.59       88.00       87.33       86.62       85.84       84.99       84.14       83.29       82.47       81.70    
        81.03       80.37       79.70       79.08       78.51       78.04       77.64       77.28       76.95       76.63    
        76.33       76.03       75.73       75.44       75.15       74.86       74.58       74.31       74.05       73.81    
        73.57       73.32       73.06       72.79       72.49       72.17       71.79       71.34       70.76       70.00    
  26    91.33       91.28       91.18       91.04       90.85       90.61       90.31       89.97       89.57       89.10    
        88.57       87.96       87.23       86.54       85.70       84.79       83.89       82.99       82.11       81.28    
        80.80       80.15       79.49       78.84       78.26       77.81       77.43       77.10       76.79       76.49    
        76.21       75.93       75.66       75.39       75.12       74.86       74.60       74.35       74.10       73.87    
        73.63       73.39       73.14       72.88       72.60       72.29       71.94       71.51       70.92       70.00    
  27    91.33       91.28       91.18       91.04       90.85       90.61       90.32       89.97       89.57       89.11    
        88.59       88.00       87.33       86.62       85.84       84.99       84.14       83.29       82.47       81.70    
        81.04       80.37       79.71       79.08       78.52       78.05       77.65       77.30       76.97       76.66    
        76.36       76.07       75.79       75.51       75.23       74.96       74.69       74.42       74.17       73.91    
        73.65       73.39       73.12       72.83       72.53       72.19       71.81       71.35       70.76       70.00    
  28    91.33       91.28       91.19       91.05       90.86       90.62       90.33       89.98       89.59       89.14    
        88.62       88.05       87.42       86.73       85.98       85.18       84.37       83.58       82.81       82.07    
        81.37       80.70       80.05       79.44       78.89       78.41       77.99       77.60       77.25       76.92    
        76.59       76.28       75.97       75.67       75.38       75.08       74.80       74.51       74.23       73.95    
        73.66       73.37       73.07       72.76       72.43       72.07       71.66       71.19       70.64       70.00    
  29    91.34       91.29       91.20       91.05       90.87       90.63       90.34       90.00       89.62       89.17    
        88.67       88.12       87.51       86.84       86.13       85.36       84.60       83.84       83.10       82.39    
        81.71       81.05       80.42       79.82       79.27       78.78       78.34       77.93       77.55       77.18    
        76.83       76.50       76.17       75.84       75.53       75.21       74.91       74.60       74.29       73.99    
        73.68       73.36       73.04       72.70       72.34       71.96       71.54       71.08       70.56       70.00    
  30    91.35       91.30       91.21       91.07       90.88       90.65       90.36       90.03       89.65       89.22    
        88.73       88.19       87.60       86.96       86.27       85.53       84.80       84.08       83.37       82.68    
        82.01       81.37       80.75       80.17       79.63       79.13       78.66       78.23       77.83       77.44    
        77.07       76.71       76.35       76.01       75.67       75.34       75.01       74.68       74.36       74.03    
        73.70       73.36       73.02       72.66       72.28       71.89       71.46       71.00       70.51       70.00    
  31    91.36       91.31       91.22       91.08       90.90       90.67       90.39       90.06       89.69       89.26    
        88.79       88.27       87.70       87.07       86.41       85.69       84.99       84.29       83.60       82.94    
        82.29       81.66       81.06       80.48       79.94       79.44       78.96       78.51       78.08       77.68    
        77.28       76.90       76.53       76.17       75.81       75.46       75.11       74.77       74.42       74.08    
        73.73       73.37       73.01       72.63       72.24       71.84       71.41       70.96       70.49       70.00    
  32    91.37       91.33       91.24       91.10       90.92       90.69       90.42       90.10       89.73       89.32    
        88.85       88.34       87.79       87.18       86.54       85.85       85.16       84.48       83.82       83.17    
        82.53       81.92       81.33       80.76       80.22       79.71       79.22       78.76       78.32       77.89    
        77.48       77.08       76.70       76.32       75.94       75.58       75.21       74.85       74.49       74.12    
        73.76       73.39       73.01       72.62       72.22       71.81       71.38       70.93       70.47       70.00    
  33    91.39       91.34       91.25       91.12       90.94       90.72       90.45       90.13       89.77       89.37    
        88.92       88.42       87.88       87.29       86.66       85.98       85.32       84.66       84.01       83.37    
        82.75       82.15       81.57       81.01       80.47       79.95       79.46       78.99       78.53       78.09    
        77.67       77.25       76.85       76.46       76.07       75.68       75.30       74.93       74.55       74.17    
        73.79       73.41       73.02       72.62       72.21       71.79       71.36       70.91       70.46       70.00    
  34    91.40       91.36       91.27       91.14       90.96       90.74       90.48       90.17       89.82       89.42    
        88.98       88.49       87.96       87.39       86.77       86.11       85.46       84.82       84.18       83.56    
        82.95       82.36       81.78       81.22       80.69       80.17       79.67       79.19       78.72       78.27    
        77.84       77.41       76.99       76.59       76.18       75.79       75.39       75.00       74.61       74.22    
        73.83       73.43       73.03       72.62       72.21       71.78       71.35       70.91       70.46       70.00    
  35    91.42       91.38       91.29       91.16       90.98       90.77       90.51       90.21       89.86       89.47    
        89.04       88.56       88.04       87.48       86.88       86.23       85.59       84.96       84.34       83.73    
        83.12       82.54       81.97       81.42       80.88       80.36       79.86       79.37       78.90       78.44    
        77.99       77.55       77.13       76.71       76.29       75.88       75.48       75.07       74.67       74.27    
        73.87       73.46       73.05       72.63       72.21       71.78       71.35       70.90       70.45       70.00    
  36    91.43       91.39       91.31       91.18       91.01       90.79       90.54       90.24       89.90       89.52    
        89.09       88.62       88.11       87.56       86.97       86.34       85.71       85.09       84.48       83.87    
        83.28       82.70       82.14       81.59       81.05       80.53       80.03       79.53       79.05       78.59    
        78.13       77.68       77.25       76.82       76.39       75.97       75.56       75.14       74.73       74.32    
        73.90       73.49       73.07       72.65       72.22       71.79       71.35       70.90       70.45       70.00    
  37    91.45       91.41       91.32       91.19       91.02       90.81       90.56       90.27       89.93       89.56    
        89.14       88.68       88.18       87.64       87.06       86.43       85.82       85.20       84.60       84.01    
        83.42       82.85       82.29       81.74       81.21       80.69       80.18       79.68       79.20       78.72    
        78.26       77.80       77.36       76.92       76.48       76.06       75.63       75.21       74.79       74.37    
        73.94       73.52       73.09       72.67       72.23       71.80       71.35       70.91       70.45       70.00    
  38    91.46       91.42       91.34       91.21       91.04       90.83       90.58       90.29       89.96       89.59    
        89.18       88.73       88.24       87.71       87.13       86.52       85.91       85.31       84.71       84.13    
        83.55       82.98       82.42       81.88       81.34       80.82       80.31       79.81       79.32       78.84    
        78.37       77.91       77.46       77.01       76.57       76.13       75.70       75.27       74.84       74.41    
        73.98       73.55       73.12       72.68       72.25       71.81       71.36       70.91       70.46       70.00    
  39    91.48       91.43       91.35       91.22       91.05       90.84       90.60       90.31       89.99       89.62    
        89.22       88.78       88.29       87.77       87.20       86.60       85.99       85.40       84.81       84.23    
        83.66       83.09       82.54       82.00       81.47       80.94       80.43       79.93       79.44       78.95    
        78.48       78.01       77.55       77.10       76.65       76.20       75.76       75.33       74.89       74.45    
        74.02       73.58       73.14       72.70       72.26       71.82       71.37       70.91       70.46       70.00    
  40    91.49       91.45       91.36       91.23       91.06       90.85       90.61       90.33       90.01       89.65    
        89.25       88.81       88.34       87.82       87.26       86.66       86.07       85.48       84.90       84.32    
        83.76       83.20       82.65       82.11       81.57       81.05       80.54       80.03       79.54       79.05    
        78.57       78.10       77.63       77.18       76.72       76.27       75.82       75.38       74.94       74.49    
        74.05       73.61       73.17       72.72       72.28       71.83       71.38       70.92       70.46       70.00    
  41    91.53       91.46       91.36       91.23       91.06       90.85       90.61       90.33       90.02       89.66    
        89.27       88.84       88.37       87.86       87.31       86.72       86.13       85.55       84.97       84.41    
        83.84       83.29       82.74       82.20       81.67       81.15       80.63       80.13       79.63       79.14    
        78.66       78.18       77.71       77.24       76.78       76.33       75.88       75.43       74.98       74.53    
        74.08       73.64       73.19       72.74       72.29       71.84       71.38       70.93       70.46       70.00    
  42    91.56       91.49       91.36       91.22       91.05       90.85       90.61       90.33       90.02       89.67    
        89.29       88.86       88.40       87.90       87.35       86.77       86.19       85.61       85.04       84.48    
        83.92       83.36       82.82       82.28       81.75       81.23       80.71       80.21       79.71       79.22    
        78.73       78.25       77.78       77.31       76.84       76.38       75.92       75.47       75.02       74.57    
        74.11       73.66       73.21       72.76       72.31       71.85       71.39       70.93       70.47       70.00    
  43  -1000.0       91.51       91.39       91.20       91.03       90.83       90.59       90.32       90.01       89.67    
        89.29       88.88       88.42       87.93       87.39       86.81       86.23       85.66       85.10       84.54    
        83.98       83.43       82.89       82.35       81.82       81.30       80.79       80.28       79.78       79.28    
        78.79       78.31       77.83       77.36       76.89       76.43       75.97       75.51       75.05       74.60    
        74.14       73.69       73.23       72.78       72.32       71.86       71.40       70.94       70.47       70.00    
  44  -1000.0     -1000.0       91.39       91.22       91.00       90.80       90.56       90.30       90.00       89.66    
        89.29       88.88       88.43       87.95       87.41       86.84       86.27       85.71       85.14       84.59    
        84.03       83.49       82.95       82.41       81.88       81.36       80.85       80.34       79.84       79.34    
        78.85       78.36       77.88       77.41       76.94       76.47       76.00       75.54       75.08       74.62    
        74.16       73.71       73.25       72.79       72.33       71.87       71.41       70.94       70.47       70.00    
  45  -1000.0     -1000.0     -1000.0       91.21       91.01       90.75       90.53       90.27       89.97       89.65    
        89.28       88.88       88.44       87.96       87.43       86.87       86.30       85.74       85.18       84.63    
        84.08       83.53       83.00       82.46       81.94       81.41       80.90       80.39       79.89       79.39    
        78.90       78.41       77.93       77.45       76.97       76.50       76.04       75.57       75.11       74.65    
        74.19       73.73       73.26       72.80       72.34       71.88       71.41       70.94       70.47       70.00    
  46  -1000.0     -1000.0     -1000.0     -1000.0       90.98       90.75       90.47       90.22       89.94       89.62    
        89.27       88.87       88.44       87.96       87.45       86.88       86.33       85.77       85.21       84.66    
        84.12       83.57       83.04       82.50       81.98       81.46       80.94       80.43       79.93       79.43    
        78.93       78.45       77.96       77.48       77.01       76.53       76.06       75.60       75.13       74.67    
        74.20       73.74       73.28       72.81       72.35       71.88       71.42       70.95       70.47       70.00    
  47  -1000.0     -1000.0     -1000.0     -1000.0     -1000.0       90.72       90.47       90.16       89.89       89.58    
        89.24       88.86       88.43       87.97       87.45       86.90       86.34       85.79       85.24       84.69    
        84.14       83.60       83.07       82.54       82.01       81.49       80.97       80.46       79.96       79.46    
        78.96       78.47       77.99       77.51       77.03       76.56       76.08       75.61       75.15       74.68    
        74.22       73.75       73.29       72.82       72.36       71.89       71.42       70.95       70.48       70.00    
  48  -1000.0     -1000.0     -1000.0     -1000.0     -1000.0     -1000.0       90.44       90.17       89.83       89.54    
        89.21       88.84       88.42       87.96       87.46       86.91       86.35       85.80       85.26       84.71    
        84.16       83.63       83.09       82.56       82.03       81.51       81.00       80.49       79.98       79.48    
        78.99       78.50       78.01       77.53       77.05       76.57       76.10       75.63       75.16       74.69    
        74.23       73.76       73.30       72.83       72.36       71.90       71.42       70.95       70.48       70.00    
  49  -1000.0     -1000.0     -1000.0     -1000.0     -1000.0     -1000.0     -1000.0       90.15       89.85       89.48    
        89.16       88.81       88.41       87.96       87.46       86.91       86.36       85.81       85.27       84.72    
        84.18       83.64       83.11       82.58       82.05       81.53       81.02       80.50       80.00       79.50    
        79.00       78.51       78.02       77.54       77.06       76.58       76.11       75.64       75.17       74.70    
[...]
        88.68       88.12       87.51       86.85       86.13       85.36       84.60       83.84       83.10       82.39    
        81.82       81.28       80.74       80.21       79.70       79.21       78.74       78.29       77.86       77.43    
        77.02       76.60       76.19       75.77       75.34       74.89       74.44       74.03       73.76       73.54    
        73.29       73.03       72.73       72.41       72.07       71.70       71.31       70.89       70.45       70.00    
  24    91.34       91.29       91.19       91.05       90.86       90.62       90.33       89.99       89.59       89.14    
        88.63       88.06       87.42       86.73       85.98       85.18       84.37       83.58       82.81       82.06    
        81.56       81.06       80.55       80.04       79.54       79.06       78.60       78.16       77.74       77.33    
        76.93       76.53       76.14       75.75       75.35       74.95       74.56       74.20       73.90       73.63    
        73.36       73.08       72.78       72.45       72.11       71.74       71.34       70.92       70.47       70.00    
  25    91.33       91.28       91.19       91.04       90.85       90.61       90.32       89.97       89.57       89.11    
        88.59       88.00       87.33       86.62       85.84       84.99       84.14       83.29       82.47       81.70    
        81.32       80.89       80.41       79.91       79.42       78.95       78.50       78.07       77.66       77.26    
        76.87       76.49       76.12       75.74       75.37       75.01       74.65       74.32       74.01       73.72    
        73.43       73.13       72.82       72.49       72.15       71.77       71.37       70.94       70.48       70.00    
  26    91.33       91.28       91.18       91.04       90.85       90.61       90.31       89.97       89.57       89.10    
        88.57       87.96       87.23       86.54       85.70       84.79       83.89       82.99       82.11       81.28    
        81.18       80.81       80.35       79.87       79.38       78.91       78.47       78.04       77.63       77.24    
        76.86       76.49       76.13       75.77       75.41       75.07       74.73       74.40       74.09       73.79    
        73.48       73.18       72.86       72.53       72.17       71.80       71.39       70.96       70.49       70.00    
  27    91.33       91.28       91.18       91.04       90.85       90.61       90.32       89.97       89.57       89.11    
        88.59       88.00       87.33       86.62       85.84       84.99       84.14       83.29       82.47       81.70    
        81.33       80.89       80.41       79.92       79.43       78.96       78.52       78.09       77.68       77.29    
        76.91       76.54       76.18       75.83       75.48       75.14       74.80       74.48       74.16       73.85    
        73.53       73.21       72.89       72.54       72.18       71.80       71.39       70.95       70.49       70.00    
  28    91.33       91.28       91.19       91.05       90.86       90.62       90.33       89.98       89.59       89.14    
        88.62       88.05       87.42       86.73       85.98       85.18       84.37       83.58       82.81       82.07    
        81.57       81.07       80.56       80.05       79.56       79.08       78.63       78.20       77.78       77.39    
        77.00       76.63       76.27       75.91       75.56       75.22       74.88       74.55       74.23       73.90    
        73.57       73.24       72.90       72.55       72.18       71.79       71.38       70.94       70.48       70.00    
  29    91.34       91.29       91.20       91.05       90.87       90.63       90.34       90.00       89.62       89.17    
        88.67       88.12       87.51       86.84       86.13       85.36       84.60       83.84       83.10       82.39    
        81.83       81.29       80.76       80.23       79.73       79.25       78.79       78.35       77.92       77.52    
        77.13       76.75       76.38       76.02       75.66       75.31       74.97       74.63       74.29       73.95    
        73.61       73.27       72.92       72.55       72.17       71.78       71.36       70.92       70.47       70.00    
  30    91.35       91.30       91.21       91.07       90.88       90.65       90.36       90.03       89.65       89.22    
        88.73       88.19       87.60       86.96       86.27       85.53       84.80       84.08       83.37       82.68    
        82.09       81.52       80.97       80.44       79.93       79.44       78.97       78.52       78.09       77.67    
        77.27       76.88       76.50       76.13       75.76       75.41       75.05       74.70       74.35       74.00    
        73.65       73.29       72.93       72.55       72.16       71.76       71.34       70.91       70.46       70.00    
  31    91.36       91.31       91.22       91.08       90.90       90.67       90.39       90.06       89.69       89.26    
        88.79       88.27       87.70       87.07       86.41       85.69       84.99       84.29       83.60       82.94    
        82.33       81.75       81.19       80.65       80.14       79.64       79.16       78.70       78.26       77.83    
        77.42       77.02       76.63       76.25       75.87       75.50       75.14       74.77       74.41       74.05    
        73.69       73.32       72.94       72.56       72.16       71.75       71.33       70.89       70.45       70.00    
  32    91.37       91.33       91.24       91.10       90.92       90.69       90.42       90.10       89.73       89.32    
        88.85       88.34       87.79       87.18       86.54       85.85       85.16       84.48       83.82       83.17    
        82.56       81.97       81.41       80.87       80.34       79.84       79.35       78.88       78.43       78.00    
        77.57       77.16       76.76       76.37       75.98       75.60       75.22       74.85       74.47       74.10    
        73.72       73.34       72.96       72.56       72.16       71.75       71.32       70.89       70.45       70.00    
  33    91.39       91.34       91.25       91.12       90.94       90.72       90.45       90.13       89.77       89.37    
        88.92       88.42       87.88       87.29       86.66       85.98       85.32       84.66       84.01       83.37    
        82.77       82.18       81.61       81.07       80.54       80.03       79.54       79.06       78.60       78.16    
        77.72       77.30       76.89       76.48       76.09       75.69       75.31       74.92       74.54       74.15    
        73.76       73.37       72.98       72.57       72.16       71.74       71.32       70.88       70.44       70.00    
  34    91.40       91.36       91.27       91.14       90.96       90.74       90.48       90.17       89.82       89.42    
        88.98       88.49       87.96       87.39       86.77       86.11       85.46       84.82       84.18       83.56    
        82.96       82.37       81.80       81.26       80.72       80.21       79.71       79.23       78.76       78.31    
        77.87       77.44       77.01       76.60       76.19       75.79       75.39       74.99       74.60       74.20    
        73.80       73.40       73.00       72.59       72.17       71.75       71.32       70.88       70.44       70.00    
  35    91.42       91.38       91.29       91.16       90.98       90.77       90.51       90.21       89.86       89.47    
        89.04       88.56       88.04       87.48       86.88       86.23       85.59       84.96       84.34       83.73    
        83.13       82.54       81.98       81.43       80.90       80.38       79.88       79.39       78.92       78.45    
        78.00       77.56       77.13       76.71       76.29       75.88       75.47       75.06       74.65       74.25    
        73.84       73.43       73.02       72.60       72.18       71.75       71.32       70.88       70.44       70.00    
  36    91.43       91.39       91.31       91.18       91.01       90.79       90.54       90.24       89.90       89.52    
        89.09       88.62       88.11       87.56       86.97       86.34       85.71       85.09       84.48       83.87    
        83.28       82.70       82.14       81.59       81.06       80.54       80.03       79.54       79.06       78.59    
        78.13       77.68       77.24       76.81       76.38       75.96       75.54       75.13       74.71       74.30    
        73.88       73.46       73.04       72.62       72.19       71.76       71.33       70.89       70.44       70.00    
  37    91.45       91.41       91.32       91.19       91.02       90.81       90.56       90.27       89.93       89.56    
        89.14       88.68       88.18       87.64       87.06       86.43       85.82       85.20       84.60       84.01    
        83.42       82.84       82.28       81.73       81.20       80.68       80.17       79.67       79.19       78.72    
        78.25       77.80       77.35       76.91       76.47       76.04       75.61       75.19       74.76       74.34    
        73.92       73.50       73.07       72.64       72.21       71.77       71.33       70.89       70.45       70.00    
  38    91.46       91.42       91.34       91.21       91.04       90.83       90.58       90.29       89.96       89.59    
        89.18       88.73       88.24       87.71       87.13       86.52       85.91       85.31       84.71       84.13    
        83.54       82.97       82.41       81.86       81.33       80.81       80.30       79.80       79.31       78.83    
        78.36       77.90       77.44       77.00       76.55       76.11       75.68       75.25       74.82       74.39    
        73.96       73.53       73.09       72.66       72.22       71.78       71.34       70.90       70.45       70.00    
  39    91.48       91.43       91.35       91.22       91.05       90.84       90.60       90.31       89.99       89.62    
        89.22       88.78       88.29       87.77       87.20       86.60       85.99       85.40       84.81       84.23    
        83.65       83.08       82.53       81.98       81.45       80.93       80.41       79.91       79.42       78.94    
        78.46       77.99       77.53       77.08       76.63       76.18       75.74       75.30       74.87       74.43    
        73.99       73.56       73.12       72.68       72.24       71.79       71.35       70.90       70.45       70.00    
  40    91.49       91.45       91.36       91.23       91.06       90.85       90.61       90.33       90.01       89.65    
        89.25       88.81       88.34       87.82       87.26       86.66       86.07       85.48       84.90       84.32    
        83.75       83.18       82.63       82.09       81.55       81.03       80.52       80.01       79.52       79.03    
        78.55       78.08       77.61       77.15       76.70       76.25       75.80       75.35       74.91       74.47    
        74.03       73.59       73.14       72.70       72.25       71.81       71.36       70.91       70.45       70.00    
  41  -1000.0       91.46       91.36       91.23       91.06       90.85       90.61       90.33       90.02       89.66    
        89.27       88.84       88.37       87.86       87.31       86.72       86.13       85.55       84.97       84.41    
        83.83       83.27       82.72       82.18       81.65       81.12       80.61       80.10       79.60       79.11    
        78.63       78.16       77.68       77.22       76.76       76.30       75.85       75.40       74.95       74.51    
        74.06       73.61       73.17       72.72       72.27       71.82       71.37       70.91       70.46       70.00    
  42  -1000.0     -1000.0       91.36       91.22       91.05       90.85       90.61       90.33       90.02       89.67    
        89.29       88.86       88.40       87.90       87.35       86.77       86.19       85.61       85.04       84.48    
        83.91       83.35       82.80       82.26       81.73       81.20       80.69       80.18       79.68       79.19    
        78.70       78.22       77.75       77.28       76.82       76.36       75.90       75.44       74.99       74.54    
        74.09       73.64       73.19       72.74       72.28       71.83       71.37       70.92       70.46       70.00    
  43  -1000.0     -1000.0     -1000.0       91.20       91.03       90.83       90.59       90.32       90.01       89.67    
        89.29       88.88       88.42       87.93       87.39       86.81       86.23       85.66       85.10       84.54    
        83.97       83.42       82.87       82.33       81.80       81.28       80.76       80.25       79.75       79.25    
        78.77       78.28       77.81       77.33       76.87       76.40       75.94       75.48       75.02       74.57    
        74.11       73.66       73.21       72.75       72.30       71.84       71.38       70.92       70.46       70.00    
  44  -1000.0     -1000.0     -1000.0     -1000.0       91.00       90.80       90.56       90.30       90.00       89.66    
        89.29       88.88       88.43       87.95       87.41       86.84       86.27       85.71       85.14       84.59    
        84.03       83.47       82.93       82.39       81.86       81.34       80.82       80.31       79.81       79.31    
        78.82       78.34       77.86       77.38       76.91       76.44       75.98       75.51       75.05       74.60    
        74.14       73.68       73.22       72.77       72.31       71.85       71.39       70.93       70.46       70.00    
  45  -1000.0     -1000.0     -1000.0     -1000.0     -1000.0       90.75       90.53       90.27       89.97       89.65    
        89.28       88.88       88.44       87.96       87.43       86.87       86.30       85.74       85.18       84.63    
        84.07       83.52       82.98       82.44       81.91       81.39       80.87       80.36       79.86       79.36    
        78.87       78.38       77.90       77.42       76.95       76.48       76.01       75.54       75.08       74.62    
        74.16       73.70       73.24       72.78       72.32       71.86       71.39       70.93       70.47       70.00    
  46  -1000.0     -1000.0     -1000.0     -1000.0     -1000.0     -1000.0       90.47       90.22       89.94       89.62    
        89.27       88.87       88.44       87.96       87.45       86.88       86.33       85.77       85.21       84.66    
        84.11       83.56       83.02       82.48       81.95       81.43       80.91       80.40       79.90       79.40    
        78.91       78.42       77.93       77.45       76.98       76.50       76.03       75.57       75.10       74.64    
        74.18       73.71       73.25       72.79       72.33       71.86       71.40       70.93       70.47       70.00    
  47  -1000.0     -1000.0     -1000.0     -1000.0     -1000.0     -1000.0     -1000.0       90.16       89.89       89.58    
        89.24       88.86       88.43       87.97       87.45       86.90       86.34       85.79       85.24       84.69    
        84.14       83.59       83.05       82.51       81.98       81.46       80.95       80.44       79.93       79.43    
        78.94       78.45       77.96       77.48       77.00       76.53       76.06       75.59       75.12       74.65    
        74.19       73.73       73.26       72.80       72.33       71.87       71.40       70.94       70.47       70.00    
  48  -1000.0     -1000.0     -1000.0     -1000.0     -1000.0     -1000.0     -1000.0     -1000.0       89.83       89.54    
        89.21       88.84       88.42       87.96       87.46       86.91       86.35       85.80       85.26       84.71    
        84.16       83.61       83.07       82.54       82.01       81.49       80.97       80.46       79.95       79.45    
        78.96       78.47       77.98       77.50       77.02       76.54       76.07       75.60       75.13       74.67    
        74.20       73.73       73.27       72.80       72.34       71.87       71.41       70.94       70.47       70.00    
  49  -1000.0     -1000.0     -1000.0     -1000.0     -1000.0     -1000.0     -1000.0     -1000.0     -1000.0       89.48    
        89.16       88.81       88.41       87.96       87.46       86.91       86.36       85.81       85.27       84.72    
        84.17       83.63       83.09       82.55       82.03       81.50       80.99       80.48       79.97       79.47    
        78.97       78.48       77.99       77.51       77.03       76.56       76.08       75.61       75.14       74.67    
        74.21       73.74       73.27       72.81       72.34       71.88       71.41       70.94       70.47       70.00    
  50  -1000.0     -1000.0     -1000.0     -1000.0     -1000.0     -1000.0     -1000.0     -1000.0     -1000.0     -1000.0    
        89.11       88.79       88.40       87.96       87.46       86.91       86.37       85.82       85.27       84.73    
        84.18       83.63       83.09       82.56       82.03       81.51       81.00       80.48       79.98       79.48    
        78.98       78.49       78.00       77.52       77.04       76.56       76.09       75.62       75.15       74.68    
        74.21       73.74       73.28       72.81       72.34       71.88       71.41       70.94       70.47       70.00    

 HEAD WILL BE SAVED ON UNIT   51 AT END OF TIME STEP    1, STRESS PERIOD    1
1
  VOLUMETRIC BUDGET FOR ENTIRE MODEL AT END OF TIME STEP    1, STRESS PERIOD   1
  ------------------------------------------------------------------------------

     CUMULATIVE VOLUMES      L**3       RATES FOR THIS TIME STEP      L**3/T
     ------------------                 ------------------------

           IN:                                      IN:
           ---                                      ---
             STORAGE =           0.0000               STORAGE =           0.0000
       CONSTANT HEAD =           0.0000         CONSTANT HEAD =           0.0000
               WELLS =           0.0000                 WELLS =           0.0000
                  ET =           0.0000                    ET =           0.0000
            RECHARGE =       28320.0000              RECHARGE =       28320.0000
      STREAM LEAKAGE =        2950.5386        STREAM LEAKAGE =        2950.5386

            TOTAL IN =       31270.5391              TOTAL IN =       31270.5391

          OUT:                                     OUT:
          ----                                     ----
             STORAGE =           0.0000               STORAGE =           0.0000
       CONSTANT HEAD =       17391.6094         CONSTANT HEAD =       17391.6094
               WELLS =        1500.0000                 WELLS =        1500.0000
                  ET =        2750.3516                    ET =        2750.3516
            RECHARGE =           0.0000              RECHARGE =           0.0000
      STREAM LEAKAGE =        9628.5869        STREAM LEAKAGE =        9628.5869

           TOTAL OUT =       31270.5469             TOTAL OUT =       31270.5469

            IN - OUT =      -7.8125E-03              IN - OUT =      -7.8125E-03

 PERCENT DISCREPANCY =          -0.00     PERCENT DISCREPANCY =          -0.00






         TIME SUMMARY AT END OF TIME STEP    1 IN STRESS PERIOD    1
                    SECONDS     MINUTES      HOURS       DAYS        YEARS
                    -----------------------------------------------------------
   TIME STEP LENGTH  86400.      1440.0      24.000      1.0000     2.73785E-03
 STRESS PERIOD TIME  86400.      1440.0      24.000      1.0000     2.73785E-03
         TOTAL TIME  86400.      1440.0      24.000      1.0000     2.73785E-03
1

 Run end date and time (yyyy/mm/dd hh:mm:ss): 2020/06/19 15:50:05
 Elapsed run time:  0.137 Seconds

