                                  MODFLOW-2005     
      U.S. GEOLOGICAL SURVEY MODULAR FINITE-DIFFERENCE GROUND-WATER FLOW MODEL
                            VERSION 1.12.00 2/3/2017

 LIST FILE: base.list
                         UNIT    2

 OPENING base.dis
 FILE TYPE:DIS   UNIT   11   STATUS:OLD    
 FORMAT:FORMATTED              ACCESS:SEQUENTIAL          

 OPENING base.bas
 FILE TYPE:BAS6   UNIT   13   STATUS:OLD    
 FORMAT:FORMATTED              ACCESS:SEQUENTIAL          

 *** ERROR OPENING FILE "base.bas" ON UNIT    13
       SPECIFIED FILE STATUS: OLD    
       SPECIFIED FILE FORMAT: FORMATTED           
       SPECIFIED FILE ACCESS: SEQUENTIAL          
       SPECIFIED FILE ACTION: READ                
  -- STOP EXECUTION (SGWF2BAS7OPEN)
