                                  MODFLOW-2005     
      U.S. GEOLOGICAL SURVEY MODULAR FINITE-DIFFERENCE GROUND-WATER FLOW MODEL
                            VERSION 1.12.00 2/3/2017

 LIST FILE: base.list
                         UNIT    2

 OPENING base.dis
 FILE TYPE:DIS   UNIT   11   STATUS:OLD    
 FORMAT:FORMATTED              ACCESS:SEQUENTIAL          

 OPENING base.bas
 FILE TYPE:BAS6   UNIT   13   STATUS:OLD    
 FORMAT:FORMATTED              ACCESS:SEQUENTIAL          

 OPENING base.lpf
 FILE TYPE:LPF   UNIT   15   STATUS:OLD    
 FORMAT:FORMATTED              ACCESS:SEQUENTIAL          

 OPENING base.oc
 FILE TYPE:OC   UNIT   14   STATUS:OLD    
 FORMAT:FORMATTED              ACCESS:SEQUENTIAL          

 OPENING base.pcg
 FILE TYPE:PCG   UNIT   27   STATUS:OLD    
 FORMAT:FORMATTED              ACCESS:SEQUENTIAL          

 OPENING base.rch
 FILE TYPE:RCH   UNIT   19   STATUS:OLD    
 FORMAT:FORMATTED              ACCESS:SEQUENTIAL          

 OPENING base.cbc
 FILE TYPE:DATA(BINARY)   UNIT   53   STATUS:REPLACE
 FORMAT:BINARY                 ACCESS:SEQUENTIAL          

 OPENING base.hds
 FILE TYPE:DATA(BINARY)   UNIT   51   STATUS:REPLACE
 FORMAT:BINARY                 ACCESS:SEQUENTIAL          

 BAS -- BASIC PACKAGE, VERSION 7, 5/2/2005 INPUT READ FROM UNIT   13
 
 MODFLOW was compiled using mixed precision
 Precision of REAL variables:           6
 Precision of DOUBLE PRECISION variables:          15

 DISCRETIZATION INPUT DATA READ FROM UNIT   11
 # DIS package for  MODFLOW-2005, generated by Flopy.
    2 LAYERS        50 ROWS        50 COLUMNS
    1 STRESS PERIOD(S) IN SIMULATION
 MODEL TIME UNIT IS DAYS
 MODEL LENGTH UNIT IS METERS
  Confining bed flag for each layer:
   0   0

                     DELR =   1000.00    

                     DELC =   1000.00    



           TOP ELEVATION OF LAYER 1
 READING ON UNIT   11 WITH FORMAT: (50E15.6)           



             MODEL LAYER BOTTOM EL. FOR LAYER   1
 READING ON UNIT   11 WITH FORMAT: (50E15.6)           



             MODEL LAYER BOTTOM EL. FOR LAYER   2
 READING ON UNIT   11 WITH FORMAT: (50E15.6)           


 STRESS PERIOD     LENGTH       TIME STEPS     MULTIPLIER FOR DELT    SS FLAG
 ----------------------------------------------------------------------------
        1         1.000000          1                    1.000         SS

 STEADY-STATE SIMULATION



 
 # BAS6 package for  MODFLOW-2005, generated by Flopy.                           
 THE FREE FORMAT OPTION HAS BEEN SELECTED



                     BOUNDARY ARRAY FOR LAYER   1
 READING ON UNIT   13 WITH FORMAT: (50I10)             



                     BOUNDARY ARRAY FOR LAYER   2
 READING ON UNIT   13 WITH FORMAT: (50I10)             

 AQUIFER HEAD WILL BE SET TO  -999.99     AT ALL NO-FLOW NODES (IBOUND=0).



                       INITIAL HEAD FOR LAYER   1
 READING ON UNIT   13 WITH FORMAT: (50E15.6)           



                       INITIAL HEAD FOR LAYER   2
 READING ON UNIT   13 WITH FORMAT: (50E15.6)           
 # OC package for  MODFLOW-2005, generated by Flopy.

 OUTPUT CONTROL IS SPECIFIED ONLY AT TIME STEPS FOR WHICH OUTPUT IS DESIRED
 COMPACT CELL-BY-CELL BUDGET FILES WILL BE WRITTEN
 AUXILIARY DATA WILL BE SAVED IN CELL-BY-CELL BUDGET FILES
 HEAD PRINT FORMAT CODE IS   0    DRAWDOWN PRINT FORMAT CODE IS   0
 HEADS WILL BE SAVED ON UNIT   51    DRAWDOWNS WILL BE SAVED ON UNIT    0

 LPF -- LAYER-PROPERTY FLOW PACKAGE, VERSION 7, 5/2/2005
         INPUT READ FROM UNIT   15
 # LPF package for  MODFLOW-2005, generated by Flopy.
 CELL-BY-CELL FLOWS WILL BE SAVED ON UNIT   53
 HEAD AT CELLS THAT CONVERT TO DRY= -1.00000E+30
 No named parameters

   LAYER FLAGS:
 LAYER       LAYTYP        LAYAVG         CHANI        LAYVKA        LAYWET
 ---------------------------------------------------------------------------
    1             1             0     0.000E+00             0             0
    2             1             0     0.000E+00             0             0

   INTERPRETATION OF LAYER FLAGS:
                        INTERBLOCK     HORIZONTAL    DATA IN
         LAYER TYPE   TRANSMISSIVITY   ANISOTROPY   ARRAY VKA   WETTABILITY
 LAYER      (LAYTYP)      (LAYAVG)       (CHANI)      (LAYVKA)      (LAYWET)
 ---------------------------------------------------------------------------
    1   CONVERTIBLE      HARMONIC      VARIABLE    VERTICAL K  NON-WETTABLE
    2   CONVERTIBLE      HARMONIC      VARIABLE    VERTICAL K  NON-WETTABLE

 WETTING CAPABILITY IS NOT ACTIVE IN ANY LAYER

    HYD. COND. ALONG ROWS =   10.0000     FOR LAYER   1

   HORIZ. ANI. (COL./ROW) =   1.00000     FOR LAYER   1

      VERTICAL HYD. COND. =   10.0000     FOR LAYER   1

    HYD. COND. ALONG ROWS =   10.0000     FOR LAYER   2

   HORIZ. ANI. (COL./ROW) =   1.00000     FOR LAYER   2

      VERTICAL HYD. COND. =   10.0000     FOR LAYER   2

 RCH -- RECHARGE PACKAGE, VERSION 7, 5/2/2005 INPUT READ FROM UNIT   19
 # RCH package for  MODFLOW-2005, generated by Flopy.
 No named parameters
 OPTION 3 -- RECHARGE TO HIGHEST ACTIVE NODE IN EACH VERTICAL COLUMN


     0 Recharge parameters

 PCG -- CONJUGATE-GRADIENT SOLUTION PACKAGE, VERSION 7, 5/2/2005
 # PCG package for  MODFLOW-2005, generated by Flopy.
 MAXIMUM OF     50 CALLS OF SOLUTION ROUTINE
 MAXIMUM OF     30 INTERNAL ITERATIONS PER CALL TO SOLUTION ROUTINE
 MATRIX PRECONDITIONING TYPE :    1



                                    SOLUTION BY THE CONJUGATE-GRADIENT METHOD
                                   -------------------------------------------
                    MAXIMUM NUMBER OF CALLS TO PCG ROUTINE =       50
                        MAXIMUM ITERATIONS PER CALL TO PCG =       30
                               MATRIX PRECONDITIONING TYPE =        1
        RELAXATION FACTOR (ONLY USED WITH PRECOND. TYPE 1) =    0.10000E+01
 PARAMETER OF POLYNOMIAL PRECOND. = 2 (2) OR IS CALCULATED :        0
                         HEAD CHANGE CRITERION FOR CLOSURE =    0.10000E-04
                     RESIDUAL CHANGE CRITERION FOR CLOSURE =    0.10000E-04
            PCG HEAD AND RESIDUAL CHANGE PRINTOUT INTERVAL =      999
     PRINTING FROM SOLVER IS LIMITED(1) OR SUPPRESSED (>1) =        3
                            STEADY-STATE DAMPING PARAMETER =    0.10000E+01
                               TRANSIENT DAMPING PARAMETER =    0.10000E+01
1
                            STRESS PERIOD NO.    1, LENGTH =   1.000000    
                            -----------------------------------------------

                              NUMBER OF TIME STEPS =     1

                               MULTIPLIER FOR DELT =     1.000

                            INITIAL TIME STEP SIZE =   1.000000    



                           RECHARGE
 READING ON UNIT   19 WITH FORMAT: (50E15.6)           
 
 SOLVING FOR HEAD 

 OUTPUT CONTROL FOR STRESS PERIOD    1   TIME STEP    1
    PRINT HEAD FOR ALL LAYERS
    PRINT BUDGET
    SAVE HEAD FOR ALL LAYERS
    SAVE BUDGET
 UBDSV2 SAVING "   CONSTANT HEAD" ON UNIT  53 AT TIME STEP  1, STRESS PERIOD   1
 UBDSV1 SAVING "FLOW RIGHT FACE " ON UNIT  53 AT TIME STEP  1, STRESS PERIOD   1
 UBDSV1 SAVING "FLOW FRONT FACE " ON UNIT  53 AT TIME STEP  1, STRESS PERIOD   1
 UBDSV1 SAVING "FLOW LOWER FACE " ON UNIT  53 AT TIME STEP  1, STRESS PERIOD   1
1
              HEAD IN LAYER   1 AT END OF TIME STEP   1 IN STRESS PERIOD    1
  ---------------------------------------------------------------------------

            1           2           3           4           5           6           7           8           9          10
           11          12          13          14          15          16          17          18          19          20
           21          22          23          24          25          26          27          28          29          30
           31          32          33          34          35          36          37          38          39          40
           41          42          43          44          45          46          47          48          49          50
 ........................................................................................................................
   1  -1000.0     -1000.0     -1000.0     -1000.0     -1000.0     -1000.0     -1000.0     -1000.0     -1000.0     -1000.0    
      -1000.0     -1000.0     -1000.0     -1000.0     -1000.0     -1000.0     -1000.0     -1000.0     -1000.0     -1000.0    
      -1000.0     -1000.0     -1000.0     -1000.0     -1000.0     -1000.0     -1000.0     -1000.0     -1000.0     -1000.0    
      -1000.0     -1000.0     -1000.0     -1000.0     -1000.0     -1000.0     -1000.0     -1000.0     -1000.0     -1000.0    
      -1000.0     -1000.0     -1000.0     -1000.0     -1000.0     -1000.0     -1000.0     -1000.0     -1000.0       70.00    
   2  -1000.0     -1000.0     -1000.0     -1000.0     -1000.0     -1000.0     -1000.0     -1000.0     -1000.0     -1000.0    
      -1000.0     -1000.0     -1000.0     -1000.0     -1000.0     -1000.0       96.07       95.51       94.91       94.29    
        93.65       93.00       92.35       91.69       91.04       90.38       89.72       89.06       88.42       87.78    
        87.19     -1000.0     -1000.0     -1000.0     -1000.0     -1000.0     -1000.0     -1000.0     -1000.0     -1000.0    
      -1000.0     -1000.0     -1000.0     -1000.0     -1000.0     -1000.0     -1000.0     -1000.0     -1000.0       70.00    
   3  -1000.0     -1000.0     -1000.0     -1000.0     -1000.0     -1000.0     -1000.0     -1000.0     -1000.0     -1000.0    
      -1000.0     -1000.0     -1000.0     -1000.0       97.43       96.82       96.17       95.55       94.93       94.30    
        93.66       93.01       92.35       91.69       91.03       90.37       89.71       89.05       88.40       87.75    
        87.12       86.48     -1000.0     -1000.0     -1000.0     -1000.0     -1000.0     -1000.0     -1000.0     -1000.0    
      -1000.0     -1000.0     -1000.0     -1000.0     -1000.0     -1000.0     -1000.0     -1000.0     -1000.0       70.00    
   4  -1000.0     -1000.0     -1000.0     -1000.0     -1000.0     -1000.0     -1000.0     -1000.0     -1000.0     -1000.0    
      -1000.0     -1000.0     -1000.0     -1000.0       97.45       96.86       96.23       95.59       94.96       94.32    
        93.67       93.01       92.35       91.69       91.03       90.36       89.69       89.02       88.36       87.71    
        87.07       86.45     -1000.0     -1000.0     -1000.0     -1000.0     -1000.0     -1000.0     -1000.0     -1000.0    
      -1000.0     -1000.0     -1000.0     -1000.0     -1000.0     -1000.0     -1000.0     -1000.0     -1000.0       70.00    
   5  -1000.0     -1000.0     -1000.0     -1000.0     -1000.0     -1000.0     -1000.0     -1000.0     -1000.0       100.5    
        100.0       99.52       98.94       98.30       97.60       96.93       96.28       95.63       94.99       94.33    
        93.68       93.02       92.35       91.69       91.02       90.34       89.67       88.99       88.32       87.64    
        86.98       86.34     -1000.0     -1000.0     -1000.0     -1000.0     -1000.0     -1000.0     -1000.0     -1000.0    
      -1000.0     -1000.0     -1000.0     -1000.0     -1000.0     -1000.0     -1000.0     -1000.0     -1000.0       70.00    
   6  -1000.0     -1000.0     -1000.0     -1000.0     -1000.0     -1000.0     -1000.0     -1000.0     -1000.0       100.4    
        99.98       99.49       98.93       98.32       97.67       96.99       96.33       95.67       95.01       94.35    
        93.69       93.02       92.35       91.68       91.00       90.32       89.64       88.95       88.26       87.57    
        86.87       86.14       85.31       84.48       83.65       82.83       82.04       81.29     -1000.0     -1000.0    
      -1000.0     -1000.0     -1000.0     -1000.0     -1000.0     -1000.0     -1000.0     -1000.0     -1000.0       70.00    
   7  -1000.0     -1000.0     -1000.0     -1000.0     -1000.0     -1000.0     -1000.0     -1000.0     -1000.0       100.4    
        99.96       99.48       98.94       98.34       97.71       97.03       96.37       95.70       95.04       94.37    
        93.70       93.03       92.35       91.67       90.99       90.30       89.61       88.91       88.21       87.50    
        86.77       86.02       85.23       84.42       83.61       82.80       81.99       81.18       80.31       79.45    
        78.61       77.82     -1000.0     -1000.0     -1000.0     -1000.0     -1000.0     -1000.0     -1000.0       70.00    
   8  -1000.0     -1000.0     -1000.0     -1000.0     -1000.0     -1000.0     -1000.0     -1000.0     -1000.0       100.4    
        99.96       99.48       98.95       98.36       97.73       97.06       96.40       95.73       95.06       94.39    
        93.71       93.03       92.35       91.66       90.97       90.28       89.58       88.87       88.16       87.43    
        86.69       85.94       85.16       84.36       83.56       82.75       81.94       81.11       80.27       79.42    
        78.58       77.73       76.84       75.96       75.14     -1000.0     -1000.0     -1000.0     -1000.0       70.00    
   9  -1000.0     -1000.0     -1000.0     -1000.0     -1000.0     -1000.0       101.7       101.3       100.9       100.5    
       100.00       99.50       98.97       98.39       97.76       97.09       96.42       95.75       95.08       94.40    
        93.72       93.04       92.35       91.65       90.96       90.25       89.54       88.83       88.11       87.37    
        86.63       85.87       85.10       84.31       83.51       82.70       81.89       81.06       80.23       79.38    
        78.53       77.68       76.81       75.94       75.08       74.21     -1000.0     -1000.0     -1000.0       70.00    
  10  -1000.0     -1000.0     -1000.0     -1000.0     -1000.0     -1000.0       101.6       101.3       100.9       100.5    
        100.0       99.53       98.99       98.41       97.78       97.11       96.44       95.77       95.09       94.41    
        93.73       93.04       92.34       91.64       90.94       90.23       89.51       88.79       88.06       87.32    
        86.57       85.81       85.04       84.25       83.46       82.65       81.84       81.02       80.18       79.34    
        78.49       77.63       76.77       75.89       75.01       74.11       73.17       72.27     -1000.0       70.00    
  11  -1000.0     -1000.0     -1000.0     -1000.0     -1000.0       101.9       101.6       101.3       100.9       100.5    
        100.0       99.55       99.01       98.43       97.80       97.13       96.46       95.79       95.11       94.42    
        93.73       93.04       92.34       91.63       90.92       90.21       89.48       88.76       88.02       87.28    
        86.52       85.76       84.99       84.20       83.41       82.61       81.79       80.97       80.14       79.30    
        78.45       77.59       76.72       75.84       74.95       74.05       73.13       72.24     -1000.0       70.00    
  12  -1000.0     -1000.0     -1000.0     -1000.0     -1000.0       101.9       101.6       101.3       100.9       100.5    
        100.1       99.56       99.03       98.45       97.82       97.15       96.48       95.80       95.12       94.43    
        93.74       93.04       92.34       91.63       90.91       90.18       89.45       88.72       87.98       87.23    
        86.48       85.71       84.94       84.16       83.36       82.56       81.75       80.93       80.09       79.25    
        78.40       77.54       76.67       75.79       74.90       73.99       73.06       72.10       71.06       70.00    
  13  -1000.0     -1000.0     -1000.0     -1000.0     -1000.0       101.9       101.6       101.3       100.9       100.5    
        100.1       99.58       99.05       98.47       97.84       97.17       96.50       95.82       95.13       94.44    
        93.75       93.04       92.33       91.62       90.89       90.16       89.42       88.69       87.94       87.19    
        86.43       85.67       84.89       84.11       83.32       82.51       81.70       80.88       80.05       79.21    
        78.36       77.50       76.63       75.75       74.85       73.93       73.00       72.03       71.03       70.00    
  14  -1000.0     -1000.0     -1000.0     -1000.0     -1000.0       101.9       101.6       101.3       100.9       100.5    
        100.1       99.60       99.07       98.49       97.86       97.19       96.52       95.83       95.15       94.45    
        93.75       93.04       92.33       91.61       90.88       90.14       89.40       88.65       87.91       87.15    
        86.39       85.62       84.85       84.06       83.27       82.47       81.66       80.84       80.01       79.17    
        78.32       77.46       76.59       75.70       74.80       73.89       72.95       71.99       71.01       70.00    
  15  -1000.0     -1000.0     -1000.0     -1000.0     -1000.0       101.9       101.6       101.3       100.9       100.5    
        100.1       99.62       99.09       98.51       97.88       97.21       96.53       95.85       95.16       94.46    
        93.76       93.05       92.33       91.60       90.86       90.12       89.37       88.62       87.87       87.11    
        86.35       85.58       84.81       84.02       83.23       82.43       81.62       80.80       79.97       79.13    
        78.28       77.42       76.55       75.66       74.76       73.85       72.92       71.96       70.99       70.00    
  16  -1000.0     -1000.0     -1000.0     -1000.0     -1000.0       101.9       101.6       101.3       101.0       100.6    
        100.1       99.64       99.11       98.53       97.91       97.23       96.55       95.86       95.17       94.47    
        93.76       93.05       92.32       91.59       90.85       90.10       89.35       88.60       87.84       87.08    
        86.31       85.54       84.76       83.98       83.19       82.38       81.58       80.76       79.93       79.09    
        78.24       77.38       76.51       75.63       74.73       73.82       72.89       71.94       70.98       70.00    
  17  -1000.0     -1000.0     -1000.0     -1000.0     -1000.0       101.9       101.6       101.3       101.0       100.6    
        100.1       99.66       99.13       98.55       97.93       97.25       96.57       95.88       95.18       94.48    
        93.77       93.05       92.32       91.58       90.84       90.08       89.33       88.57       87.81       87.05    
        86.28       85.50       84.72       83.94       83.14       82.34       81.53       80.72       79.89       79.05    
        78.21       77.35       76.48       75.60       74.70       73.79       72.87       71.93       70.97       70.00    
  18  -1000.0     -1000.0     -1000.0     -1000.0     -1000.0       101.9       101.6       101.3       101.0       100.6    
        100.2       99.69       99.16       98.58       97.95       97.27       96.58       95.89       95.19       94.48    
        93.77       93.05       92.32       91.58       90.83       90.07       89.31       88.55       87.78       87.02    
        86.24       85.47       84.68       83.90       83.10       82.30       81.49       80.68       79.85       79.02    
        78.17       77.32       76.45       75.57       74.67       73.77       72.85       71.91       70.96       70.00    
  19  -1000.0     -1000.0     -1000.0     -1000.0       102.2       102.0       101.7       101.4       101.0       100.6    
        100.2       99.71       99.18       98.60       97.97       97.29       96.60       95.90       95.20       94.49    
        93.77       93.05       92.31       91.57       90.82       90.06       89.29       88.53       87.76       86.99    
        86.21       85.43       84.65       83.86       83.06       82.26       81.46       80.64       79.82       78.98    
        78.14       77.28       76.42       75.54       74.65       73.75       72.83       71.90       70.96       70.00    
  20  -1000.0     -1000.0     -1000.0       102.4       102.2       102.0       101.7       101.4       101.1       100.7    
        100.2       99.74       99.20       98.62       97.99       97.30       96.61       95.92       95.21       94.50    
        93.78       93.05       92.31       91.57       90.81       90.05       89.28       88.51       87.74       86.97    
        86.19       85.41       84.62       83.83       83.03       82.23       81.42       80.60       79.78       78.95    
        78.11       77.25       76.39       75.52       74.63       73.73       72.82       71.89       70.95       70.00    
  21  -1000.0     -1000.0     -1000.0       102.4       102.3       102.0       101.8       101.4       101.1       100.7    
        100.3       99.77       99.23       98.64       98.01       97.32       96.63       95.93       95.22       94.51    
        93.78       93.05       92.31       91.56       90.80       90.04       89.27       88.50       87.72       86.95    
        86.16       85.38       84.59       83.80       83.00       82.19       81.38       80.57       79.75       78.92    
        78.08       77.23       76.37       75.49       74.61       73.71       72.81       71.88       70.95       70.00    
  22  -1000.0     -1000.0       102.6       102.5       102.3       102.1       101.8       101.5       101.1       100.7    
        100.3       99.79       99.25       98.67       98.03       97.34       96.64       95.94       95.23       94.51    
        93.79       93.05       92.31       91.56       90.79       90.03       89.26       88.48       87.71       86.93    
        86.14       85.36       84.57       83.77       82.97       82.17       81.35       80.54       79.71       78.88    
        78.05       77.20       76.34       75.47       74.59       73.70       72.79       71.88       70.94       70.00    
  23  -1000.0       102.8       102.7       102.5       102.3       102.1       101.8       101.5       101.2       100.8    
        100.3       99.82       99.28       98.69       98.05       97.36       96.66       95.95       95.24       94.52    
        93.79       93.05       92.31       91.55       90.79       90.02       89.24       88.47       87.69       86.91    
        86.13       85.34       84.55       83.75       82.95       82.14       81.33       80.51       79.69       78.86    
        78.02       77.17       76.32       75.45       74.58       73.69       72.78       71.87       70.94       70.00    
  24  -1000.0       102.8       102.7       102.5       102.3       102.1       101.9       101.5       101.2       100.8    
        100.3       99.84       99.30       98.71       98.07       97.37       96.67       95.96       95.25       94.53    
        93.80       93.06       92.31       91.55       90.78       90.01       89.24       88.46       87.68       86.90    
        86.11       85.32       84.53       83.73       82.93       82.12       81.31       80.49       79.67       78.84    
        78.00       77.15       76.30       75.44       74.56       73.68       72.78       71.86       70.94       70.00    
  25  -1000.0       102.8       102.7       102.6       102.4       102.1       101.9       101.6       101.2       100.8    
        100.4       99.86       99.32       98.73       98.08       97.39       96.68       95.97       95.26       94.53    
        93.80       93.06       92.31       91.55       90.78       90.00       89.23       88.45       87.67       86.88    
        86.10       85.31       84.52       83.72       82.92       82.11       81.30       80.48       79.65       78.82    
        77.98       77.14       76.28       75.42       74.55       73.67       72.77       71.86       70.94       70.00    
  26  -1000.0       102.8       102.7       102.6       102.4       102.2       101.9       101.6       101.2       100.8    
        100.4       99.89       99.34       98.74       98.10       97.40       96.70       95.98       95.26       94.54    
        93.80       93.06       92.31       91.55       90.77       90.00       89.22       88.44       87.66       86.87    
        86.09       85.30       84.50       83.71       82.90       82.10       81.28       80.47       79.64       78.81    
        77.97       77.13       76.27       75.41       74.54       73.66       72.77       71.86       70.94       70.00    
  27  -1000.0       102.8       102.7       102.6       102.4       102.2       101.9       101.6       101.3       100.9    
        100.4       99.91       99.36       98.76       98.11       97.41       96.70       95.99       95.27       94.54    
        93.80       93.06       92.31       91.54       90.77       89.99       89.21       88.43       87.65       86.87    
        86.08       85.29       84.50       83.70       82.90       82.09       81.28       80.46       79.64       78.81    
        77.97       77.12       76.27       75.41       74.54       73.66       72.76       71.86       70.93       70.00    
  28  -1000.0       102.9       102.8       102.6       102.5       102.2       102.0       101.6       101.3       100.9    
        100.4       99.92       99.37       98.77       98.12       97.42       96.71       96.00       95.27       94.54    
        93.81       93.06       92.30       91.54       90.77       89.99       89.21       88.43       87.64       86.86    
        86.07       85.28       84.49       83.69       82.89       82.09       81.28       80.46       79.64       78.81    
        77.97       77.13       76.28       75.42       74.55       73.66       72.77       71.86       70.93       70.00    
  29  -1000.0       102.9       102.8       102.7       102.5       102.3       102.0       101.7       101.3       100.9    
        100.4       99.94       99.39       98.79       98.13       97.43       96.72       96.00       95.28       94.55    
        93.81       93.06       92.30       91.53       90.76       89.98       89.20       88.42       87.64       86.85    
        86.07       85.28       84.49       83.69       82.89       82.09       81.28       80.46       79.64       78.81    
        77.98       77.14       76.29       75.42       74.55       73.67       72.77       71.86       70.94       70.00    
  30  -1000.0     -1000.0       102.8       102.7       102.5       102.3       102.0       101.7       101.3       100.9    
        100.5       99.95       99.40       98.80       98.14       97.44       96.73       96.01       95.28       94.55    
        93.80       93.05       92.30       91.53       90.76       89.98       89.20       88.42       87.63       86.85    
        86.07       85.28       84.49       83.70       82.90       82.09       81.29       80.47       79.65       78.83    
        77.99       77.15       76.30       75.43       74.56       73.67       72.77       71.86       70.94       70.00    
  31  -1000.0     -1000.0       102.9       102.7       102.6       102.3       102.0       101.7       101.4       100.9    
        100.5       99.97       99.41       98.81       98.15       97.44       96.73       96.01       95.28       94.55    
        93.80       93.05       92.29       91.52       90.75       89.97       89.19       88.41       87.63       86.85    
        86.07       85.28       84.49       83.70       82.91       82.10       81.30       80.49       79.67       78.84    
        78.01       77.16       76.31       75.44       74.57       73.68       72.78       71.86       70.94       70.00    
  32  -1000.0     -1000.0       102.9       102.8       102.6       102.4       102.1       101.7       101.4       101.0    
        100.5       99.98       99.42       98.82       98.16       97.45       96.74       96.01       95.28       94.55    
        93.80       93.05       92.29       91.52       90.74       89.96       89.18       88.40       87.62       86.85    
        86.07       85.28       84.50       83.71       82.92       82.12       81.32       80.51       79.69       78.86    
        78.03       77.18       76.32       75.45       74.57       73.68       72.78       71.87       70.94       70.00    
  33  -1000.0     -1000.0       103.0       102.9       102.7       102.4       102.1       101.8       101.4       101.0    
        100.5      100.00       99.43       98.82       98.17       97.46       96.74       96.02       95.28       94.54    
        93.80       93.04       92.28       91.51       90.73       89.95       89.17       88.40       87.62       86.84    
        86.07       85.29       84.51       83.72       82.93       82.14       81.34       80.53       79.71       78.88    
        78.04       77.20       76.34       75.47       74.58       73.69       72.79       71.87       70.94       70.00    
  34  -1000.0     -1000.0       103.1       102.9       102.7       102.4       102.1       101.8       101.4       101.0    
        100.5       100.0       99.45       98.83       98.17       97.46       96.74       96.02       95.28       94.54    
        93.79       93.04       92.27       91.50       90.72       89.94       89.16       88.39       87.61       86.84    
        86.07       85.29       84.52       83.74       82.95       82.16       81.36       80.55       79.73       78.90    
        78.06       77.21       76.35       75.48       74.60       73.70       72.79       71.87       70.94       70.00    
  35  -1000.0     -1000.0     -1000.0     -1000.0     -1000.0       102.4       102.1       101.8       101.4       101.0    
        100.5       100.0       99.46       98.84       98.18       97.46       96.74       96.02       95.28       94.54    
        93.79       93.03       92.26       91.49       90.71       89.93       89.15       88.38       87.61       86.84    
        86.07       85.30       84.53       83.75       82.97       82.18       81.38       80.57       79.75       78.92    
        78.08       77.23       76.37       75.49       74.61       73.71       72.80       71.88       70.95       70.00    
  36  -1000.0     -1000.0     -1000.0     -1000.0     -1000.0     -1000.0       102.2       101.8       101.5       101.0    
        100.6       100.0       99.47       98.85       98.18       97.47       96.75       96.02       95.28       94.54    
        93.79       93.02       92.25       91.47       90.69       89.91       89.13       88.36       87.60       86.83    
        86.07       85.31       84.54       83.77       82.99       82.20       81.41       80.60       79.78       78.95    
        78.11       77.25       76.39       75.51       74.62       73.72       72.81       71.88       70.95       70.00    
  37  -1000.0     -1000.0     -1000.0     -1000.0     -1000.0     -1000.0     -1000.0       101.8       101.5       101.1    
        100.6       100.1       99.49       98.86       98.19       97.47       96.74       96.02       95.28       94.54    
        93.78       93.01       92.24       91.45       90.67       89.88       89.11       88.34       87.58       86.83    
        86.07       85.32       84.56       83.79       83.01       82.23       81.43       80.63       79.81       78.98    
        78.13       77.28       76.41       75.53       74.63       73.73       72.81       71.89       70.95       70.00    
  38  -1000.0     -1000.0     -1000.0     -1000.0     -1000.0     -1000.0     -1000.0       101.9       101.5       101.1    
        100.6       100.1       99.51       98.87       98.19       97.46       96.74       96.02       95.29       94.54    
        93.78       93.01       92.22       91.43       90.64       89.85       89.08       88.32       87.57       86.82    
        86.07       85.32       84.57       83.81       83.04       82.26       81.46       80.66       79.84       79.01    
        78.16       77.30       76.43       75.55       74.65       73.74       72.82       71.89       70.95       70.00    
  39  -1000.0     -1000.0     -1000.0     -1000.0     -1000.0     -1000.0     -1000.0       102.0       101.6       101.2    
        100.7       100.1       99.54       98.88       98.17       97.45       96.73       96.02       95.29       94.55    
        93.78       93.00       92.20       91.40       90.60       89.80       89.03       88.28       87.54       86.80    
        86.06       85.33       84.58       83.83       83.07       82.29       81.50       80.70       79.88       79.04    
        78.19       77.33       76.46       75.57       74.66       73.75       72.83       71.89       70.95       70.00    
  40  -1000.0     -1000.0     -1000.0     -1000.0     -1000.0     -1000.0     -1000.0     -1000.0     -1000.0       101.2    
        100.8       100.2       99.58       98.89       98.14       97.41       96.72       96.02       95.31       94.58    
        93.80       93.00       92.18       91.36       90.54       89.73       88.97       88.23       87.50       86.78    
        86.05       85.33       84.60       83.85       83.10       82.33       81.54       80.74       79.92       79.08    
        78.23       77.37       76.49       75.59       74.68       73.76       72.83       71.90       70.95       70.00    
  41  -1000.0     -1000.0     -1000.0     -1000.0     -1000.0     -1000.0     -1000.0     -1000.0     -1000.0     -1000.0    
      -1000.0     -1000.0     -1000.0     -1000.0       98.03       97.35       96.69       96.03       95.36       94.65    
        93.83       93.00       92.16       91.32       90.47       89.61       88.87       88.16       87.45       86.75    
        86.04       85.33       84.61       83.89       83.14       82.38       81.60       80.79       79.97       79.12    
        78.26       77.40       76.54       75.61       74.68       73.76       72.83       71.89       70.95       70.00    
  42  -1000.0     -1000.0     -1000.0     -1000.0     -1000.0     -1000.0     -1000.0     -1000.0     -1000.0     -1000.0    
      -1000.0     -1000.0     -1000.0     -1000.0     -1000.0       97.25       96.67       96.05       95.42       94.82    
      -1000.0     -1000.0     -1000.0     -1000.0     -1000.0       89.38       88.74       88.07       87.40       86.71    
        86.03       85.34       84.64       83.92       83.20       82.45       81.66       80.86       80.04       79.16    
        78.29       77.44       76.63     -1000.0     -1000.0     -1000.0     -1000.0     -1000.0     -1000.0       70.00    
  43  -1000.0     -1000.0     -1000.0     -1000.0     -1000.0     -1000.0     -1000.0     -1000.0     -1000.0     -1000.0    
      -1000.0     -1000.0     -1000.0     -1000.0     -1000.0       97.27       96.69       96.08       95.46       94.88    
      -1000.0     -1000.0     -1000.0     -1000.0     -1000.0       89.25       88.63       87.99       87.34       86.68    
        86.02       85.34       84.66       83.97       83.27       82.54       81.73       80.92       80.16     -1000.0    
      -1000.0     -1000.0     -1000.0     -1000.0     -1000.0     -1000.0     -1000.0     -1000.0     -1000.0       70.00    
  44  -1000.0     -1000.0     -1000.0     -1000.0     -1000.0     -1000.0     -1000.0     -1000.0     -1000.0     -1000.0    
      -1000.0     -1000.0     -1000.0     -1000.0     -1000.0       97.35       96.74       96.10       95.47       94.86    
      -1000.0     -1000.0     -1000.0     -1000.0     -1000.0       89.19       88.53       87.91       87.29       86.65    
        86.01       85.35       84.69       84.02       83.36       82.72     -1000.0     -1000.0     -1000.0     -1000.0    
      -1000.0     -1000.0     -1000.0     -1000.0     -1000.0     -1000.0     -1000.0     -1000.0     -1000.0       70.00    
  45  -1000.0     -1000.0     -1000.0     -1000.0     -1000.0     -1000.0     -1000.0     -1000.0     -1000.0     -1000.0    
      -1000.0     -1000.0     -1000.0     -1000.0     -1000.0     -1000.0     -1000.0     -1000.0     -1000.0     -1000.0    
      -1000.0     -1000.0     -1000.0     -1000.0     -1000.0     -1000.0       88.40       87.84       87.24       86.63    
        86.00       85.36       84.72       84.07       83.43       82.80     -1000.0     -1000.0     -1000.0     -1000.0    
      -1000.0     -1000.0     -1000.0     -1000.0     -1000.0     -1000.0     -1000.0     -1000.0     -1000.0       70.00    
  46  -1000.0     -1000.0     -1000.0     -1000.0     -1000.0     -1000.0     -1000.0     -1000.0     -1000.0     -1000.0    
      -1000.0     -1000.0     -1000.0     -1000.0     -1000.0     -1000.0     -1000.0     -1000.0     -1000.0     -1000.0    
      -1000.0     -1000.0     -1000.0     -1000.0     -1000.0     -1000.0       88.34       87.79       87.21       86.61    
        86.00       85.38       84.75       84.11       83.46       82.83     -1000.0     -1000.0     -1000.0     -1000.0    
      -1000.0     -1000.0     -1000.0     -1000.0     -1000.0     -1000.0     -1000.0     -1000.0     -1000.0       70.00    
  47  -1000.0     -1000.0     -1000.0     -1000.0     -1000.0     -1000.0     -1000.0     -1000.0     -1000.0     -1000.0    
      -1000.0     -1000.0     -1000.0     -1000.0     -1000.0     -1000.0     -1000.0     -1000.0     -1000.0     -1000.0    
      -1000.0     -1000.0     -1000.0     -1000.0     -1000.0     -1000.0       88.33       87.76       87.19       86.60    
        86.00       85.40       84.78       84.15       83.47       82.81     -1000.0     -1000.0     -1000.0     -1000.0    
      -1000.0     -1000.0     -1000.0     -1000.0     -1000.0     -1000.0     -1000.0     -1000.0     -1000.0       70.00    
  48  -1000.0     -1000.0     -1000.0     -1000.0     -1000.0     -1000.0     -1000.0     -1000.0     -1000.0     -1000.0    
      -1000.0     -1000.0     -1000.0     -1000.0     -1000.0     -1000.0     -1000.0     -1000.0     -1000.0     -1000.0    
      -1000.0     -1000.0     -1000.0     -1000.0     -1000.0     -1000.0       88.34       87.75       87.18       86.60    
        86.01       85.42       84.83       84.23     -1000.0     -1000.0     -1000.0     -1000.0     -1000.0     -1000.0    
      -1000.0     -1000.0     -1000.0     -1000.0     -1000.0     -1000.0     -1000.0     -1000.0     -1000.0       70.00    
  49  -1000.0     -1000.0     -1000.0     -1000.0     -1000.0     -1000.0     -1000.0     -1000.0     -1000.0     -1000.0    
      -1000.0     -1000.0     -1000.0     -1000.0     -1000.0     -1000.0     -1000.0     -1000.0     -1000.0     -1000.0    
      -1000.0     -1000.0     -1000.0     -1000.0     -1000.0     -1000.0     -1000.0       87.71       87.17       86.60    
        86.01       85.44       84.89     -1000.0     -1000.0     -1000.0     -1000.0     -1000.0     -1000.0     -1000.0    
      -1000.0     -1000.0     -1000.0     -1000.0     -1000.0     -1000.0     -1000.0     -1000.0     -1000.0       70.00    
  50  -1000.0     -1000.0     -1000.0     -1000.0     -1000.0     -1000.0     -1000.0     -1000.0     -1000.0     -1000.0    
      -1000.0     -1000.0     -1000.0     -1000.0     -1000.0     -1000.0     -1000.0     -1000.0     -1000.0     -1000.0    
      -1000.0     -1000.0     -1000.0     -1000.0     -1000.0     -1000.0     -1000.0     -1000.0     -1000.0     -1000.0    
      -1000.0     -1000.0     -1000.0     -1000.0     -1000.0     -1000.0     -1000.0     -1000.0     -1000.0     -1000.0    
      -1000.0     -1000.0     -1000.0     -1000.0     -1000.0     -1000.0     -1000.0     -1000.0     -1000.0       70.00    
1
              HEAD IN LAYER   2 AT END OF TIME STEP   1 IN STRESS PERIOD    1
  ---------------------------------------------------------------------------

            1           2           3           4           5           6           7           8           9          10
           11          12          13          14          15          16          17          18          19          20
           21          22          23          24          25          26          27          28          29          30
           31          32          33          34          35          36          37          38          39          40
           41          42          43          44          45          46          47          48          49          50
 ........................................................................................................................
   1    103.8       103.8       103.6       103.4       103.2       102.8       102.5       102.0       101.5       101.0    
        100.4       99.80       99.13       98.41       97.66       96.89       96.16       95.53       94.90       94.28    
        93.64       93.00       92.35       91.69       91.04       90.38       89.72       89.07       88.41       87.76    
        87.08       86.30       85.47       84.60       83.73       82.86       81.99       81.11       80.23       79.34    
        78.44       77.54       76.62       75.70       74.77       73.83       72.88       71.92       70.96       70.00    
   2    103.8       103.7       103.6       103.4       103.2       102.8       102.4       102.0       101.5       101.0    
        100.4       99.77       99.10       98.37       97.60       96.84       96.07       95.51       94.91       94.29    
        93.65       93.00       92.35       91.69       91.04       90.38       89.72       89.06       88.41       87.78    
        87.19       86.36       85.49       84.61       83.73       82.86       81.99       81.12       80.24       79.35    
        78.45       77.55       76.63       75.71       74.78       73.83       72.88       71.93       70.96       70.00    
   3    103.8       103.7       103.6       103.4       103.1       102.8       102.4       101.9       101.4       100.9    
        100.3       99.71       99.05       98.30       97.43       96.82       96.17       95.55       94.93       94.30    
        93.66       93.01       92.35       91.69       91.03       90.37       89.71       89.05       88.40       87.75    
        87.12       86.48       85.52       84.61       83.73       82.86       82.00       81.13       80.25       79.36    
        78.47       77.57       76.65       75.73       74.80       73.85       72.90       71.94       70.97       70.00    
   4    103.8       103.7       103.5       103.3       103.1       102.7       102.3       101.9       101.3       100.7    
        100.2       99.62       98.99       98.28       97.45       96.86       96.23       95.59       94.96       94.32    
        93.67       93.01       92.35       91.69       91.03       90.36       89.69       89.02       88.36       87.71    
        87.07       86.45       85.50       84.59       83.72       82.86       82.01       81.15       80.27       79.39    
        78.50       77.60       76.68       75.76       74.82       73.88       72.92       71.95       70.98       70.00    
   5    103.7       103.6       103.5       103.3       103.0       102.7       102.2       101.7       101.2       100.5    
        100.0       99.52       98.94       98.30       97.60       96.93       96.28       95.63       94.99       94.33    
        93.68       93.02       92.35       91.69       91.02       90.34       89.67       88.99       88.32       87.64    
        86.98       86.34       85.42       84.55       83.69       82.85       82.02       81.19       80.30       79.42    
        78.53       77.64       76.72       75.80       74.86       73.91       72.95       71.97       70.99       70.00    
   6    103.6       103.6       103.4       103.2       102.9       102.6       102.1       101.7       101.1       100.4    
        99.98       99.49       98.93       98.32       97.67       96.99       96.33       95.67       95.01       94.35    
        93.69       93.02       92.35       91.68       91.00       90.32       89.64       88.95       88.26       87.57    
        86.87       86.14       85.31       84.48       83.65       82.83       82.04       81.29       80.33       79.44    
        78.57       77.70       76.78       75.85       74.92       73.96       72.98       72.00       71.00       70.00    
   7    103.6       103.5       103.4       103.1       102.8       102.5       102.0       101.6       101.0       100.4    
        99.96       99.48       98.94       98.34       97.71       97.03       96.37       95.70       95.04       94.37    
        93.70       93.03       92.35       91.67       90.99       90.30       89.61       88.91       88.21       87.50    
        86.77       86.02       85.23       84.42       83.61       82.80       81.99       81.18       80.31       79.45    
        78.61       77.82       76.84       75.91       75.00       74.03       73.04       72.03       71.02       70.00    
   8    103.5       103.4       103.3       103.0       102.7       102.3       101.9       101.5       101.0       100.4    
        99.96       99.48       98.95       98.36       97.73       97.06       96.40       95.73       95.06       94.39    
        93.71       93.03       92.35       91.66       90.97       90.28       89.58       88.87       88.16       87.43    
        86.69       85.94       85.16       84.36       83.56       82.75       81.94       81.11       80.27       79.42    
        78.58       77.73       76.84       75.96       75.14       74.12       73.10       72.08       71.04       70.00    
   9    103.4       103.4       103.2       103.0       102.6       102.2       101.7       101.3       100.9       100.5    
       100.00       99.50       98.97       98.39       97.76       97.09       96.42       95.75       95.08       94.40    
        93.72       93.04       92.35       91.65       90.96       90.25       89.54       88.83       88.11       87.37    
        86.63       85.87       85.10       84.31       83.51       82.70       81.89       81.06       80.23       79.38    
        78.53       77.68       76.81       75.94       75.08       74.21       73.16       72.14       71.07       70.00    
  10    103.4       103.3       103.1       102.9       102.5       102.1       101.6       101.3       100.9       100.5    
        100.0       99.53       98.99       98.41       97.78       97.11       96.44       95.77       95.09       94.41    
        93.73       93.04       92.34       91.64       90.94       90.23       89.51       88.79       88.06       87.32    
        86.57       85.81       85.04       84.25       83.46       82.65       81.84       81.02       80.18       79.34    
        78.49       77.63       76.77       75.89       75.01       74.11       73.17       72.27       71.11       70.00    
  11    103.3       103.2       103.0       102.8       102.4       101.9       101.6       101.3       100.9       100.5    
        100.0       99.55       99.01       98.43       97.80       97.13       96.46       95.79       95.11       94.42    
        93.73       93.04       92.34       91.63       90.92       90.21       89.48       88.76       88.02       87.28    
        86.52       85.76       84.99       84.20       83.41       82.61       81.79       80.97       80.14       79.30    
        78.45       77.59       76.72       75.84       74.95       74.05       73.13       72.24       71.10       70.00    
  12    103.2       103.2       103.0       102.7       102.4       101.9       101.6       101.3       100.9       100.5    
        100.1       99.56       99.03       98.45       97.82       97.15       96.48       95.80       95.12       94.43    
        93.74       93.04       92.34       91.63       90.91       90.18       89.45       88.72       87.98       87.23    
        86.48       85.71       84.94       84.16       83.36       82.56       81.75       80.93       80.09       79.25    
        78.40       77.54       76.67       75.79       74.90       73.99       73.06       72.10       71.06       70.00    
  13    103.2       103.1       102.9       102.7       102.3       101.9       101.6       101.3       100.9       100.5    
        100.1       99.58       99.05       98.47       97.84       97.17       96.50       95.82       95.13       94.44    
        93.75       93.04       92.33       91.62       90.89       90.16       89.42       88.69       87.94       87.19    
        86.43       85.67       84.89       84.11       83.32       82.51       81.70       80.88       80.05       79.21    
        78.36       77.50       76.63       75.75       74.85       73.93       73.00       72.03       71.03       70.00    
  14    103.2       103.1       102.9       102.6       102.3       101.9       101.6       101.3       100.9       100.5    
        100.1       99.60       99.07       98.49       97.86       97.19       96.52       95.83       95.15       94.45    
        93.75       93.04       92.33       91.61       90.88       90.14       89.40       88.65       87.91       87.15    
        86.39       85.62       84.85       84.06       83.27       82.47       81.66       80.84       80.01       79.17    
        78.32       77.46       76.59       75.70       74.80       73.89       72.95       71.99       71.01       70.00    
  15    103.1       103.0       102.9       102.6       102.3       101.9       101.6       101.3       100.9       100.5    
        100.1       99.62       99.09       98.51       97.88       97.21       96.53       95.85       95.16       94.46    
        93.76       93.05       92.33       91.60       90.86       90.12       89.37       88.62       87.87       87.11    
        86.35       85.58       84.81       84.02       83.23       82.43       81.62       80.80       79.97       79.13    
        78.28       77.42       76.55       75.66       74.76       73.85       72.92       71.96       70.99       70.00    
  16    103.1       103.0       102.8       102.6       102.3       101.9       101.6       101.3       101.0       100.6    
        100.1       99.64       99.11       98.53       97.90       97.23       96.55       95.86       95.17       94.47    
        93.76       93.05       92.32       91.59       90.85       90.10       89.35       88.60       87.84       87.08    
        86.31       85.54       84.76       83.98       83.19       82.38       81.58       80.76       79.93       79.09    
        78.24       77.38       76.51       75.63       74.73       73.82       72.89       71.94       70.98       70.00    
  17    103.0       103.0       102.8       102.6       102.3       101.9       101.6       101.3       101.0       100.6    
        100.1       99.66       99.13       98.55       97.93       97.25       96.57       95.88       95.18       94.48    
        93.77       93.05       92.32       91.58       90.84       90.08       89.33       88.57       87.81       87.05    
        86.28       85.50       84.72       83.94       83.14       82.34       81.53       80.72       79.89       79.05    
        78.21       77.35       76.48       75.60       74.70       73.79       72.87       71.93       70.97       70.00    
  18    103.0       102.9       102.8       102.5       102.2       101.9       101.6       101.3       101.0       100.6    
        100.2       99.69       99.16       98.57       97.95       97.27       96.58       95.89       95.19       94.48    
        93.77       93.05       92.32       91.58       90.83       90.07       89.31       88.55       87.78       87.02    
        86.24       85.47       84.68       83.90       83.10       82.30       81.49       80.68       79.85       79.02    
        78.17       77.32       76.45       75.57       74.67       73.77       72.85       71.91       70.96       70.00    
  19    103.0       102.9       102.7       102.5       102.2       102.0       101.7       101.4       101.0       100.6    
        100.2       99.71       99.18       98.60       97.97       97.29       96.60       95.90       95.20       94.49    
        93.77       93.05       92.31       91.57       90.82       90.06       89.29       88.53       87.76       86.99    
        86.21       85.43       84.65       83.86       83.06       82.26       81.46       80.64       79.82       78.98    
        78.14       77.28       76.42       75.54       74.65       73.75       72.83       71.90       70.96       70.00    
  20    102.9       102.9       102.7       102.4       102.2       102.0       101.7       101.4       101.1       100.7    
        100.2       99.74       99.20       98.62       97.99       97.30       96.61       95.92       95.21       94.50    
        93.78       93.05       92.31       91.57       90.81       90.05       89.28       88.51       87.74       86.97    
        86.19       85.41       84.62       83.83       83.03       82.23       81.42       80.60       79.78       78.95    
        78.11       77.25       76.39       75.52       74.63       73.73       72.82       71.89       70.95       70.00    
  21    102.9       102.8       102.7       102.4       102.3       102.0       101.8       101.4       101.1       100.7    
        100.3       99.77       99.23       98.64       98.01       97.32       96.63       95.93       95.22       94.51    
        93.78       93.05       92.31       91.56       90.80       90.04       89.27       88.50       87.72       86.95    
        86.16       85.38       84.59       83.80       83.00       82.19       81.38       80.57       79.75       78.92    
        78.08       77.23       76.37       75.49       74.61       73.71       72.81       71.88       70.95       70.00    
  22    102.9       102.8       102.6       102.5       102.3       102.1       101.8       101.5       101.1       100.7    
        100.3       99.79       99.25       98.66       98.03       97.34       96.64       95.94       95.23       94.51    
        93.79       93.05       92.31       91.56       90.79       90.03       89.26       88.48       87.71       86.93    
        86.14       85.36       84.57       83.77       82.97       82.17       81.35       80.54       79.71       78.88    
        78.05       77.20       76.34       75.47       74.59       73.70       72.79       71.88       70.94       70.00    
  23    102.9       102.8       102.7       102.5       102.3       102.1       101.8       101.5       101.2       100.8    
        100.3       99.82       99.28       98.69       98.05       97.36       96.66       95.95       95.24       94.52    
        93.79       93.05       92.31       91.55       90.79       90.02       89.24       88.47       87.69       86.91    
        86.13       85.34       84.55       83.75       82.95       82.14       81.33       80.51       79.69       78.86    
        78.02       77.17       76.32       75.45       74.58       73.69       72.78       71.87       70.94       70.00    
  24    102.9       102.8       102.7       102.5       102.3       102.1       101.9       101.5       101.2       100.8    
        100.3       99.84       99.30       98.71       98.07       97.37       96.67       95.96       95.25       94.53    
        93.80       93.06       92.31       91.55       90.78       90.01       89.24       88.46       87.68       86.90    
        86.11       85.32       84.53       83.73       82.93       82.12       81.31       80.49       79.67       78.84    
        78.00       77.15       76.30       75.44       74.56       73.68       72.78       71.86       70.94       70.00    
  25    102.9       102.8       102.7       102.6       102.4       102.1       101.9       101.6       101.2       100.8    
        100.4       99.86       99.32       98.73       98.08       97.39       96.68       95.97       95.26       94.53    
        93.80       93.06       92.31       91.55       90.78       90.00       89.23       88.45       87.67       86.88    
        86.10       85.31       84.52       83.72       82.92       82.11       81.30       80.48       79.65       78.82    
        77.98       77.14       76.28       75.42       74.55       73.67       72.77       71.86       70.94       70.00    
  26    102.9       102.8       102.7       102.6       102.4       102.2       101.9       101.6       101.2       100.8    
        100.4       99.89       99.34       98.74       98.10       97.40       96.70       95.98       95.26       94.54    
        93.80       93.06       92.31       91.55       90.77       90.00       89.22       88.44       87.66       86.87    
        86.09       85.30       84.50       83.71       82.90       82.10       81.28       80.47       79.64       78.81    
        77.97       77.13       76.27       75.41       74.54       73.66       72.77       71.86       70.94       70.00    
  27    102.9       102.8       102.7       102.6       102.4       102.2       101.9       101.6       101.3       100.9    
        100.4       99.91       99.36       98.76       98.11       97.41       96.70       95.99       95.27       94.54    
        93.80       93.06       92.31       91.54       90.77       89.99       89.21       88.43       87.65       86.87    
        86.08       85.29       84.50       83.70       82.90       82.09       81.28       80.46       79.64       78.81    
        77.97       77.12       76.27       75.41       74.54       73.66       72.76       71.86       70.93       70.00    
  28    103.0       102.9       102.8       102.6       102.5       102.2       102.0       101.6       101.3       100.9    
        100.4       99.92       99.37       98.77       98.12       97.42       96.71       96.00       95.27       94.54    
        93.81       93.06       92.30       91.54       90.77       89.99       89.21       88.43       87.64       86.86    
        86.07       85.28       84.49       83.69       82.89       82.09       81.28       80.46       79.64       78.81    
        77.97       77.13       76.28       75.42       74.55       73.66       72.77       71.86       70.93       70.00    
  29    103.0       102.9       102.8       102.7       102.5       102.3       102.0       101.7       101.3       100.9    
        100.4       99.94       99.39       98.79       98.13       97.43       96.72       96.00       95.28       94.55    
        93.81       93.06       92.30       91.53       90.76       89.98       89.20       88.42       87.64       86.85    
        86.07       85.28       84.49       83.69       82.89       82.09       81.28       80.46       79.64       78.81    
        77.98       77.14       76.29       75.42       74.55       73.67       72.77       71.86       70.94       70.00    
  30    103.1       103.0       102.8       102.7       102.5       102.3       102.0       101.7       101.3       100.9    
        100.5       99.95       99.40       98.80       98.14       97.44       96.73       96.01       95.28       94.55    
        93.80       93.05       92.30       91.53       90.76       89.98       89.20       88.42       87.63       86.85    
        86.07       85.28       84.49       83.70       82.90       82.09       81.29       80.47       79.65       78.83    
        77.99       77.15       76.30       75.43       74.56       73.67       72.77       71.86       70.94       70.00    
  31    103.1       103.1       102.9       102.7       102.6       102.3       102.0       101.7       101.4       100.9    
        100.5       99.97       99.41       98.81       98.15       97.44       96.73       96.01       95.28       94.55    
        93.80       93.05       92.29       91.52       90.75       89.97       89.19       88.41       87.63       86.85    
        86.07       85.28       84.49       83.70       82.91       82.10       81.30       80.49       79.67       78.84    
        78.01       77.16       76.31       75.44       74.57       73.68       72.78       71.86       70.94       70.00    
  32    103.2       103.1       102.9       102.8       102.6       102.4       102.1       101.7       101.4       101.0    
        100.5       99.98       99.42       98.82       98.16       97.45       96.74       96.01       95.28       94.55    
        93.80       93.05       92.29       91.52       90.74       89.96       89.18       88.40       87.62       86.85    
        86.07       85.28       84.50       83.71       82.92       82.12       81.32       80.51       79.69       78.86    
        78.03       77.18       76.32       75.45       74.57       73.68       72.78       71.87       70.94       70.00    
  33    103.3       103.2       103.0       102.9       102.7       102.4       102.1       101.8       101.4       101.0    
        100.5      100.00       99.43       98.82       98.17       97.46       96.74       96.02       95.28       94.54    
        93.80       93.04       92.28       91.51       90.73       89.95       89.17       88.40       87.62       86.84    
        86.07       85.29       84.51       83.72       82.93       82.14       81.34       80.53       79.71       78.88    
        78.04       77.20       76.34       75.47       74.58       73.69       72.79       71.87       70.94       70.00    
  34    103.5       103.4       103.1       102.9       102.7       102.4       102.1       101.8       101.4       101.0    
        100.5       100.0       99.45       98.83       98.17       97.46       96.74       96.02       95.28       94.54    
        93.79       93.04       92.27       91.50       90.72       89.94       89.16       88.39       87.61       86.84    
        86.07       85.29       84.52       83.74       82.95       82.16       81.36       80.55       79.73       78.90    
        78.06       77.21       76.35       75.48       74.60       73.70       72.79       71.87       70.94       70.00    
  35    103.6       103.5       103.3       103.1       102.8       102.4       102.1       101.8       101.4       101.0    
        100.5       100.0       99.46       98.84       98.18       97.46       96.74       96.02       95.28       94.54    
        93.79       93.03       92.26       91.49       90.71       89.93       89.15       88.38       87.61       86.84    
        86.07       85.30       84.53       83.75       82.97       82.18       81.38       80.57       79.75       78.92    
        78.08       77.23       76.37       75.49       74.61       73.71       72.80       71.88       70.95       70.00    
  36    103.8       103.7       103.5       103.3       103.0       102.6       102.2       101.8       101.5       101.0    
        100.6       100.0       99.47       98.85       98.18       97.47       96.75       96.02       95.28       94.54    
        93.79       93.02       92.25       91.47       90.69       89.91       89.13       88.36       87.60       86.83    
        86.07       85.31       84.54       83.77       82.99       82.20       81.41       80.60       79.78       78.95    
        78.11       77.25       76.39       75.51       74.62       73.72       72.81       71.88       70.95       70.00    
  37    103.9       103.9       103.7       103.5       103.2       102.8       102.3       101.8       101.5       101.1    
        100.6       100.1       99.49       98.86       98.19       97.47       96.74       96.02       95.28       94.54    
        93.78       93.01       92.24       91.45       90.67       89.88       89.11       88.34       87.58       86.83    
        86.07       85.32       84.56       83.79       83.01       82.23       81.43       80.63       79.81       78.98    
        78.13       77.28       76.41       75.53       74.63       73.73       72.81       71.89       70.95       70.00    
  38    104.1       104.0       103.9       103.7       103.3       103.0       102.5       101.9       101.5       101.1    
        100.6       100.1       99.51       98.87       98.19       97.46       96.74       96.02       95.29       94.54    
        93.78       93.01       92.22       91.43       90.64       89.85       89.08       88.32       87.57       86.82    
        86.07       85.32       84.57       83.81       83.04       82.26       81.46       80.66       79.84       79.01    
        78.16       77.30       76.43       75.55       74.65       73.74       72.82       71.89       70.95       70.00    
  39    104.3       104.2       104.0       103.8       103.5       103.1       102.6       102.0       101.6       101.2    
        100.7       100.1       99.54       98.88       98.17       97.45       96.73       96.02       95.29       94.55    
        93.78       93.00       92.20       91.40       90.60       89.80       89.03       88.28       87.54       86.80    
        86.06       85.33       84.58       83.83       83.07       82.29       81.50       80.70       79.88       79.04    
        78.19       77.33       76.46       75.57       74.66       73.75       72.83       71.89       70.95       70.00    
  40    104.4       104.3       104.2       104.0       103.7       103.3       102.9       102.4       101.8       101.2    
        100.8       100.2       99.58       98.89       98.14       97.41       96.72       96.02       95.31       94.58    
        93.80       93.00       92.18       91.36       90.54       89.73       88.97       88.23       87.50       86.78    
        86.05       85.33       84.60       83.85       83.10       82.33       81.54       80.74       79.92       79.08    
        78.23       77.37       76.49       75.59       74.68       73.76       72.83       71.90       70.95       70.00    
  41    104.6       104.5       104.4       104.1       103.9       103.5       103.1       102.6       102.1       101.5    
        101.0       100.4       99.70       98.94       98.03       97.35       96.69       96.03       95.36       94.65    
        93.83       93.00       92.16       91.32       90.47       89.61       88.87       88.16       87.45       86.75    
        86.04       85.33       84.61       83.89       83.14       82.38       81.60       80.79       79.97       79.12    
        78.26       77.40       76.54       75.61       74.68       73.76       72.83       71.89       70.95       70.00    
  42    104.7       104.6       104.5       104.3       104.0       103.7       103.3       102.8       102.3       101.8    
        101.2       100.5       99.83       99.04       98.17       97.26       96.67       96.05       95.42       94.82    
        93.89       92.99       92.11       91.23       90.32       89.38       88.74       88.07       87.40       86.71    
        86.03       85.34       84.64       83.92       83.20       82.45       81.66       80.86       80.04       79.16    
        78.29       77.44       76.63       75.63       74.68       73.75       72.81       71.88       70.94       70.00    
  43    104.8       104.8       104.6       104.4       104.2       103.8       103.4       103.0       102.5       101.9    
        101.3       100.7       99.96       99.16       98.26       97.27       96.69       96.08       95.46       94.88    
        93.91       92.98       92.07       91.16       90.23       89.25       88.63       87.99       87.34       86.68    
        86.02       85.34       84.66       83.97       83.27       82.54       81.73       80.92       80.16       79.20    
        78.30       77.42       76.53       75.60       74.66       73.73       72.80       71.87       70.94       70.00    
  44    104.9       104.9       104.8       104.6       104.3       104.0       103.6       103.1       102.6       102.1    
        101.5       100.8       100.1       99.28       98.38       97.35       96.74       96.10       95.47       94.86    
        93.88       92.95       92.03       91.11       90.17       89.19       88.53       87.91       87.29       86.65    
        86.01       85.35       84.69       84.02       83.36       82.72       81.81       80.95       80.09       79.19    
        78.28       77.39       76.49       75.57       74.64       73.72       72.79       71.86       70.93       70.00    
  45    105.0       105.0       104.9       104.7       104.4       104.1       103.7       103.3       102.8       102.2    
        101.6       100.9       100.2       99.41       98.55       97.64       96.88       96.15       95.42       94.67    
        93.80       92.90       92.00       91.09       90.17       89.25       88.40       87.84       87.24       86.63    
        86.00       85.36       84.72       84.07       83.43       82.80       81.86       80.96       80.07       79.17    
        78.27       77.36       76.46       75.55       74.63       73.70       72.78       71.85       70.93       70.00    
  46    105.1       105.1       104.9       104.8       104.5       104.2       103.8       103.4       102.9       102.3    
        101.7       101.1       100.3       99.53       98.69       97.80       96.97       96.18       95.39       94.59    
        93.74       92.86       91.97       91.07       90.17       89.26       88.34       87.79       87.21       86.61    
        86.00       85.38       84.75       84.11       83.46       82.83       81.87       80.95       80.05       79.15    
        78.25       77.34       76.44       75.53       74.61       73.69       72.77       71.85       70.92       70.00    
  47    105.2       105.1       105.0       104.8       104.6       104.3       103.9       103.5       103.0       102.4    
        101.8       101.1       100.4       99.62       98.78       97.90       97.04       96.21       95.39       94.55    
        93.70       92.83       91.95       91.06       90.17       89.26       88.33       87.76       87.19       86.60    
        86.00       85.40       84.78       84.15       83.47       82.81       81.85       80.93       80.03       79.13    
        78.23       77.33       76.42       75.51       74.60       73.68       72.76       71.84       70.92       70.00    
  48    105.3       105.2       105.1       104.9       104.6       104.3       103.9       103.5       103.0       102.5    
        101.9       101.2       100.5       99.69       98.85       97.96       97.09       96.23       95.39       94.54    
        93.68       92.82       91.94       91.06       90.18       89.28       88.34       87.75       87.18       86.60    
        86.01       85.42       84.83       84.23       83.43       82.65       81.78       80.90       80.01       79.11    
        78.22       77.31       76.41       75.50       74.59       73.68       72.76       71.84       70.92       70.00    
  49    105.3       105.2       105.1       104.9       104.7       104.4       104.0       103.6       103.1       102.5    
        101.9       101.2       100.5       99.74       98.89       98.00       97.12       96.25       95.39       94.54    
        93.68       92.81       91.94       91.07       90.20       89.33       88.49       87.71       87.17       86.60    
        86.01       85.44       84.89       84.14       83.37       82.57       81.73       80.87       79.99       79.10    
        78.20       77.31       76.40       75.50       74.58       73.67       72.76       71.84       70.92       70.00    
  50    105.3       105.2       105.1       104.9       104.7       104.4       104.0       103.6       103.1       102.5    
        101.9       101.3       100.5       99.76       98.91       98.01       97.13       96.26       95.40       94.54    
        93.67       92.81       91.94       91.08       90.21       89.37       88.56       87.82       87.20       86.60    
        86.01       85.42       84.80       84.09       83.33       82.54       81.70       80.85       79.98       79.09    
        78.20       77.30       76.40       75.49       74.58       73.67       72.75       71.84       70.92       70.00    

 HEAD WILL BE SAVED ON UNIT   51 AT END OF TIME STEP    1, STRESS PERIOD    1
1
  VOLUMETRIC BUDGET FOR ENTIRE MODEL AT END OF TIME STEP    1, STRESS PERIOD   1
  ------------------------------------------------------------------------------

     CUMULATIVE VOLUMES      L**3       RATES FOR THIS TIME STEP      L**3/T
     ------------------                 ------------------------

           IN:                                      IN:
           ---                                      ---
             STORAGE =           0.0000               STORAGE =           0.0000
       CONSTANT HEAD =           0.0000         CONSTANT HEAD =           0.0000
            RECHARGE =       30000.0000              RECHARGE =       30000.0000

            TOTAL IN =       30000.0000              TOTAL IN =       30000.0000

          OUT:                                     OUT:
          ----                                     ----
             STORAGE =           0.0000               STORAGE =           0.0000
       CONSTANT HEAD =       30000.0000         CONSTANT HEAD =       30000.0000
            RECHARGE =           0.0000              RECHARGE =           0.0000

           TOTAL OUT =       30000.0000             TOTAL OUT =       30000.0000

            IN - OUT =           0.0000              IN - OUT =           0.0000

 PERCENT DISCREPANCY =           0.00     PERCENT DISCREPANCY =           0.00






         TIME SUMMARY AT END OF TIME STEP    1 IN STRESS PERIOD    1
                    SECONDS     MINUTES      HOURS       DAYS        YEARS
                    -----------------------------------------------------------
   TIME STEP LENGTH  86400.      1440.0      24.000      1.0000     2.73785E-03
 STRESS PERIOD TIME  86400.      1440.0      24.000      1.0000     2.73785E-03
         TOTAL TIME  86400.      1440.0      24.000      1.0000     2.73785E-03
1

 Run end date and time (yyyy/mm/dd hh:mm:ss): 2021/11/27 14:08:40
 Elapsed run time:  0.053 Seconds

