                                  MODFLOW-2005     
      U.S. GEOLOGICAL SURVEY MODULAR FINITE-DIFFERENCE GROUND-WATER FLOW MODEL
                            VERSION 1.12.00 2/3/2017

 LIST FILE: well.list
                         UNIT    2

 OPENING well.dis
 FILE TYPE:DIS   UNIT   11   STATUS:OLD    
 FORMAT:FORMATTED              ACCESS:SEQUENTIAL          

 OPENING well.bas
 FILE TYPE:BAS6   UNIT   13   STATUS:OLD    
 FORMAT:FORMATTED              ACCESS:SEQUENTIAL          

 OPENING well.lpf
 FILE TYPE:LPF   UNIT   15   STATUS:OLD    
 FORMAT:FORMATTED              ACCESS:SEQUENTIAL          

 OPENING well.oc
 FILE TYPE:OC   UNIT   14   STATUS:OLD    
 FORMAT:FORMATTED              ACCESS:SEQUENTIAL          

 OPENING well.pcg
 FILE TYPE:PCG   UNIT   27   STATUS:OLD    
 FORMAT:FORMATTED              ACCESS:SEQUENTIAL          

 OPENING well.rch
 FILE TYPE:RCH   UNIT   19   STATUS:OLD    
 FORMAT:FORMATTED              ACCESS:SEQUENTIAL          

 OPENING well.str
 FILE TYPE:STR   UNIT  118   STATUS:OLD    
 FORMAT:FORMATTED              ACCESS:SEQUENTIAL          

 OPENING well.evt
 FILE TYPE:EVT   UNIT   22   STATUS:OLD    
 FORMAT:FORMATTED              ACCESS:SEQUENTIAL          

 OPENING well.wel
 FILE TYPE:WEL   UNIT   20   STATUS:OLD    
 FORMAT:FORMATTED              ACCESS:SEQUENTIAL          

 OPENING well.cbc
 FILE TYPE:DATA(BINARY)   UNIT   53   STATUS:REPLACE
 FORMAT:BINARY                 ACCESS:SEQUENTIAL          

 OPENING well.hds
 FILE TYPE:DATA(BINARY)   UNIT   51   STATUS:REPLACE
 FORMAT:BINARY                 ACCESS:SEQUENTIAL          

 BAS -- BASIC PACKAGE, VERSION 7, 5/2/2005 INPUT READ FROM UNIT   13
 
 MODFLOW was compiled using mixed precision
 Precision of REAL variables:           6
 Precision of DOUBLE PRECISION variables:          15

 DISCRETIZATION INPUT DATA READ FROM UNIT   11
 # DIS package for  MODFLOW-2005, generated by Flopy.
    2 LAYERS        50 ROWS        50 COLUMNS
    1 STRESS PERIOD(S) IN SIMULATION
 MODEL TIME UNIT IS DAYS
 MODEL LENGTH UNIT IS METERS
  Confining bed flag for each layer:
   0   0

                     DELR =   1000.00    

                     DELC =   1000.00    



           TOP ELEVATION OF LAYER 1
 READING ON UNIT   11 WITH FORMAT: (50E15.6)           



             MODEL LAYER BOTTOM EL. FOR LAYER   1
 READING ON UNIT   11 WITH FORMAT: (50E15.6)           



             MODEL LAYER BOTTOM EL. FOR LAYER   2
 READING ON UNIT   11 WITH FORMAT: (50E15.6)           


 STRESS PERIOD     LENGTH       TIME STEPS     MULTIPLIER FOR DELT    SS FLAG
 ----------------------------------------------------------------------------
        1         1.000000          1                    1.000         SS

 STEADY-STATE SIMULATION



 
 # BAS6 package for  MODFLOW-2005, generated by Flopy.                           
 THE FREE FORMAT OPTION HAS BEEN SELECTED



                     BOUNDARY ARRAY FOR LAYER   1
 READING ON UNIT   13 WITH FORMAT: (50I10)             



                     BOUNDARY ARRAY FOR LAYER   2
 READING ON UNIT   13 WITH FORMAT: (50I10)             

 AQUIFER HEAD WILL BE SET TO  -999.99     AT ALL NO-FLOW NODES (IBOUND=0).



                       INITIAL HEAD FOR LAYER   1
 READING ON UNIT   13 WITH FORMAT: (50E15.6)           



                       INITIAL HEAD FOR LAYER   2
 READING ON UNIT   13 WITH FORMAT: (50E15.6)           
 # OC package for  MODFLOW-2005, generated by Flopy.

 OUTPUT CONTROL IS SPECIFIED ONLY AT TIME STEPS FOR WHICH OUTPUT IS DESIRED
 COMPACT CELL-BY-CELL BUDGET FILES WILL BE WRITTEN
 AUXILIARY DATA WILL BE SAVED IN CELL-BY-CELL BUDGET FILES
 HEAD PRINT FORMAT CODE IS   0    DRAWDOWN PRINT FORMAT CODE IS   0
 HEADS WILL BE SAVED ON UNIT   51    DRAWDOWNS WILL BE SAVED ON UNIT    0

 LPF -- LAYER-PROPERTY FLOW PACKAGE, VERSION 7, 5/2/2005
         INPUT READ FROM UNIT   15
 # LPF package for  MODFLOW-2005, generated by Flopy.
 CELL-BY-CELL FLOWS WILL BE SAVED ON UNIT   53
 HEAD AT CELLS THAT CONVERT TO DRY= -1.00000E+30
 No named parameters

   LAYER FLAGS:
 LAYER       LAYTYP        LAYAVG         CHANI        LAYVKA        LAYWET
 ---------------------------------------------------------------------------
    1             1             0     0.000E+00             0             0
    2             1             0     0.000E+00             0             0

   INTERPRETATION OF LAYER FLAGS:
                        INTERBLOCK     HORIZONTAL    DATA IN
         LAYER TYPE   TRANSMISSIVITY   ANISOTROPY   ARRAY VKA   WETTABILITY
 LAYER      (LAYTYP)      (LAYAVG)       (CHANI)      (LAYVKA)      (LAYWET)
 ---------------------------------------------------------------------------
    1   CONVERTIBLE      HARMONIC      VARIABLE    VERTICAL K  NON-WETTABLE
    2   CONVERTIBLE      HARMONIC      VARIABLE    VERTICAL K  NON-WETTABLE

 WETTING CAPABILITY IS NOT ACTIVE IN ANY LAYER

    HYD. COND. ALONG ROWS =   21.5000     FOR LAYER   1

   HORIZ. ANI. (COL./ROW) =   1.00000     FOR LAYER   1

      VERTICAL HYD. COND. =   10.0000     FOR LAYER   1

    HYD. COND. ALONG ROWS =   21.5000     FOR LAYER   2

   HORIZ. ANI. (COL./ROW) =   1.00000     FOR LAYER   2

      VERTICAL HYD. COND. =   10.0000     FOR LAYER   2

 WEL -- WELL PACKAGE, VERSION 7, 5/2/2005 INPUT READ FROM UNIT   20
 # WEL package for  MODFLOW-2005, generated by Flopy.
 No named parameters
 MAXIMUM OF      2 ACTIVE WELLS AT ONE TIME


     0 Well parameters

 EVT -- EVAPOTRANSPIRATION PACKAGE, VERSION 7, 5/2/2005
         INPUT READ FROM UNIT   22
 # EVT package for  MODFLOW-2005, generated by Flopy.
 No named parameters
 OPTION 3 -- EVAPOTRANSPIRATION FROM HIGHEST ACTIVE NODE IN EACH VERTICAL COLUMN
 CELL-BY-CELL FLOWS WILL BE SAVED ON UNIT   53


     0 Evapotranspiration parameters

 RCH -- RECHARGE PACKAGE, VERSION 7, 5/2/2005 INPUT READ FROM UNIT   19
 # RCH package for  MODFLOW-2005, generated by Flopy.
 No named parameters
 OPTION 3 -- RECHARGE TO HIGHEST ACTIVE NODE IN EACH VERTICAL COLUMN


     0 Recharge parameters

 STR -- STREAM PACKAGE, VERSION 7, 5/2/2005 INPUT READ FROM UNIT  118
 # STR package for  MODFLOW-2005, generated by Flopy.
 No named parameters
 MAXIMUM OF     44 ACTIVE STREAM NODES AT ONE TIME
 NUMBER OF STREAM SEGMENTS IS      1
 NUMBER OF STREAM TRIBUTARIES IS      0
 CELL BUDGETS WILL BE SAVED ON UNITS   53 AND   53


     0 Stream parameters

 PCG -- CONJUGATE-GRADIENT SOLUTION PACKAGE, VERSION 7, 5/2/2005
 # PCG package for  MODFLOW-2005, generated by Flopy.
 MAXIMUM OF     50 CALLS OF SOLUTION ROUTINE
 MAXIMUM OF     30 INTERNAL ITERATIONS PER CALL TO SOLUTION ROUTINE
 MATRIX PRECONDITIONING TYPE :    1



                                    SOLUTION BY THE CONJUGATE-GRADIENT METHOD
                                   -------------------------------------------
                    MAXIMUM NUMBER OF CALLS TO PCG ROUTINE =       50
                        MAXIMUM ITERATIONS PER CALL TO PCG =       30
                               MATRIX PRECONDITIONING TYPE =        1
        RELAXATION FACTOR (ONLY USED WITH PRECOND. TYPE 1) =    0.10000E+01
 PARAMETER OF POLYNOMIAL PRECOND. = 2 (2) OR IS CALCULATED :        0
                         HEAD CHANGE CRITERION FOR CLOSURE =    0.10000E-04
                     RESIDUAL CHANGE CRITERION FOR CLOSURE =    0.10000E-04
            PCG HEAD AND RESIDUAL CHANGE PRINTOUT INTERVAL =      999
     PRINTING FROM SOLVER IS LIMITED(1) OR SUPPRESSED (>1) =        3
                            STEADY-STATE DAMPING PARAMETER =    0.10000E+01
                               TRANSIENT DAMPING PARAMETER =    0.10000E+01
1
                            STRESS PERIOD NO.    1, LENGTH =   1.000000    
                            -----------------------------------------------

                              NUMBER OF TIME STEPS =     1

                               MULTIPLIER FOR DELT =     1.000

                            INITIAL TIME STEP SIZE =   1.000000    

 WELL NO.  LAYER   ROW   COL   STRESS RATE         
 --------------------------------------------------
      1      1     33     23     -0.1250E+05
      2      1     33     36     -0.1200E+05

      2 WELLS



                         ET SURFACE
 READING ON UNIT   22 WITH FORMAT: (50E15.6)           



            EVAPOTRANSPIRATION RATE
 READING ON UNIT   22 WITH FORMAT: (50E15.6)           



                   EXTINCTION DEPTH
 READING ON UNIT   22 WITH FORMAT: (50E15.6)           



                           RECHARGE
 READING ON UNIT   19 WITH FORMAT: (50E15.6)           

     44 STREAM REACHES
 
 SOLVING FOR HEAD 

 OUTPUT CONTROL FOR STRESS PERIOD    1   TIME STEP    1
    PRINT HEAD FOR ALL LAYERS
    PRINT BUDGET
    SAVE HEAD FOR ALL LAYERS
    SAVE BUDGET
 UBDSV2 SAVING "   CONSTANT HEAD" ON UNIT  53 AT TIME STEP  1, STRESS PERIOD   1
 UBDSV1 SAVING "FLOW RIGHT FACE " ON UNIT  53 AT TIME STEP  1, STRESS PERIOD   1
 UBDSV1 SAVING "FLOW FRONT FACE " ON UNIT  53 AT TIME STEP  1, STRESS PERIOD   1
 UBDSV1 SAVING "FLOW LOWER FACE " ON UNIT  53 AT TIME STEP  1, STRESS PERIOD   1
 UBDSV3 SAVING "              ET" ON UNIT  53 AT TIME STEP  1, STRESS PERIOD   1
 UBDSV4 SAVING "  STREAM LEAKAGE" ON UNIT  53 AT TIME STEP  1, STRESS PERIOD   1
 UBDSV4 SAVING "STREAM FLOW OUT " ON UNIT  53 AT TIME STEP  1, STRESS PERIOD   1
1
              HEAD IN LAYER   1 AT END OF TIME STEP   1 IN STRESS PERIOD    1
  ---------------------------------------------------------------------------

            1           2           3           4           5           6           7           8           9          10
           11          12          13          14          15          16          17          18          19          20
           21          22          23          24          25          26          27          28          29          30
           31          32          33          34          35          36          37          38          39          40
           41          42          43          44          45          46          47          48          49          50
 ........................................................................................................................
   1  -1000.0     -1000.0     -1000.0     -1000.0     -1000.0     -1000.0     -1000.0     -1000.0     -1000.0     -1000.0    
      -1000.0     -1000.0     -1000.0     -1000.0     -1000.0     -1000.0     -1000.0     -1000.0     -1000.0     -1000.0    
      -1000.0     -1000.0     -1000.0     -1000.0     -1000.0     -1000.0     -1000.0     -1000.0     -1000.0     -1000.0    
      -1000.0     -1000.0     -1000.0     -1000.0     -1000.0     -1000.0     -1000.0     -1000.0     -1000.0     -1000.0    
      -1000.0     -1000.0     -1000.0     -1000.0     -1000.0     -1000.0     -1000.0     -1000.0     -1000.0     -1000.0    
   2  -1000.0     -1000.0     -1000.0     -1000.0     -1000.0     -1000.0     -1000.0     -1000.0     -1000.0     -1000.0    
      -1000.0     -1000.0     -1000.0     -1000.0     -1000.0     -1000.0     -1000.0     -1000.0     -1000.0     -1000.0    
      -1000.0     -1000.0     -1000.0       72.02       71.99       71.93       71.86       71.79       71.72       71.65    
        71.58       71.52       71.47       71.43     -1000.0     -1000.0     -1000.0     -1000.0     -1000.0     -1000.0    
      -1000.0     -1000.0     -1000.0     -1000.0     -1000.0     -1000.0     -1000.0     -1000.0     -1000.0     -1000.0    
   3  -1000.0     -1000.0     -1000.0     -1000.0     -1000.0     -1000.0     -1000.0     -1000.0     -1000.0     -1000.0    
      -1000.0     -1000.0     -1000.0     -1000.0     -1000.0     -1000.0     -1000.0     -1000.0     -1000.0     -1000.0    
      -1000.0     -1000.0       72.11       72.06       72.00       71.94       71.87       71.79       71.72       71.64    
        71.57       71.51       71.45       71.40       71.36     -1000.0     -1000.0     -1000.0     -1000.0     -1000.0    
      -1000.0     -1000.0     -1000.0     -1000.0     -1000.0     -1000.0     -1000.0     -1000.0     -1000.0     -1000.0    
   4  -1000.0     -1000.0     -1000.0     -1000.0     -1000.0     -1000.0     -1000.0     -1000.0     -1000.0     -1000.0    
      -1000.0     -1000.0     -1000.0     -1000.0     -1000.0     -1000.0     -1000.0     -1000.0     -1000.0     -1000.0    
      -1000.0     -1000.0       72.16       72.10       72.03       71.95       71.87       71.79       71.71       71.63    
        71.56       71.49       71.42       71.36       71.32     -1000.0     -1000.0     -1000.0     -1000.0     -1000.0    
      -1000.0     -1000.0     -1000.0     -1000.0     -1000.0     -1000.0     -1000.0     -1000.0     -1000.0     -1000.0    
   5  -1000.0     -1000.0     -1000.0     -1000.0     -1000.0     -1000.0     -1000.0     -1000.0     -1000.0     -1000.0    
      -1000.0     -1000.0     -1000.0     -1000.0     -1000.0     -1000.0     -1000.0       72.86       72.80       72.71    
        72.59       72.44       72.27       72.16       72.06       71.97       71.88       71.79       71.71       71.62    
        71.54       71.46       71.39       71.31       71.23       71.11       71.00       70.92       70.84       70.77    
        70.71       70.66       70.63       70.60     -1000.0     -1000.0     -1000.0     -1000.0     -1000.0     -1000.0    
   6  -1000.0     -1000.0     -1000.0     -1000.0     -1000.0     -1000.0     -1000.0     -1000.0     -1000.0     -1000.0    
      -1000.0     -1000.0     -1000.0     -1000.0     -1000.0     -1000.0     -1000.0       72.92       72.84       72.73    
        72.61       72.47       72.33       72.20       72.09       71.99       71.89       71.79       71.70       71.61    
        71.52       71.44       71.35       71.27       71.18       71.08       70.99       70.91       70.83       70.76    
        70.70       70.65       70.61       70.58       70.55     -1000.0     -1000.0     -1000.0     -1000.0     -1000.0    
   7  -1000.0     -1000.0     -1000.0     -1000.0     -1000.0     -1000.0     -1000.0     -1000.0     -1000.0     -1000.0    
      -1000.0     -1000.0     -1000.0       73.65       73.57       73.43       73.26       73.06       72.91       72.78    
        72.64       72.50       72.36       72.23       72.11       72.00       71.89       71.79       71.69       71.59    
        71.50       71.41       71.32       71.23       71.14       71.05       70.97       70.89       70.81       70.75    
        70.69       70.63       70.59       70.55       70.52     -1000.0     -1000.0     -1000.0     -1000.0     -1000.0    
   8  -1000.0     -1000.0     -1000.0     -1000.0     -1000.0     -1000.0     -1000.0     -1000.0     -1000.0     -1000.0    
      -1000.0     -1000.0       73.78       73.71       73.61       73.46       73.30       73.13       72.97       72.82    
        72.67       72.53       72.39       72.25       72.13       72.00       71.89       71.78       71.67       71.57    
        71.47       71.38       71.29       71.20       71.11       71.02       70.94       70.86       70.79       70.72    
        70.66       70.61       70.56       70.51       70.47       70.40       70.36       70.33     -1000.0     -1000.0    
   9  -1000.0     -1000.0     -1000.0     -1000.0     -1000.0     -1000.0     -1000.0     -1000.0     -1000.0     -1000.0    
      -1000.0     -1000.0       73.83       73.77       73.66       73.51       73.35       73.18       73.02       72.86    
        72.70       72.55       72.41       72.27       72.13       72.00       71.88       71.77       71.65       71.55    
        71.44       71.35       71.25       71.16       71.07       70.99       70.90       70.83       70.76       70.69    
        70.63       70.58       70.52       70.48       70.43       70.38       70.34       70.31     -1000.0     -1000.0    
  10  -1000.0     -1000.0     -1000.0     -1000.0     -1000.0     -1000.0     -1000.0     -1000.0     -1000.0     -1000.0    
      -1000.0     -1000.0       73.91       73.85       73.73       73.57       73.40       73.23       73.06       72.90    
        72.73       72.57       72.42       72.27       72.13       72.00       71.87       71.75       71.63       71.52    
        71.41       71.31       71.21       71.12       71.03       70.94       70.86       70.79       70.72       70.65    
        70.59       70.54       70.49       70.44       70.39       70.34       70.30       70.26       70.22     -1000.0    
  11  -1000.0     -1000.0     -1000.0     -1000.0     -1000.0     -1000.0     -1000.0     -1000.0     -1000.0     -1000.0    
      -1000.0     -1000.0       74.03       73.95       73.82       73.64       73.46       73.28       73.10       72.93    
        72.75       72.59       72.43       72.27       72.13       71.98       71.85       71.72       71.60       71.48    
        71.37       71.27       71.17       71.07       70.98       70.90       70.82       70.75       70.68       70.61    
        70.55       70.50       70.45       70.40       70.35       70.31       70.26       70.22       70.18     -1000.0    
  12  -1000.0     -1000.0     -1000.0     -1000.0     -1000.0     -1000.0     -1000.0     -1000.0     -1000.0     -1000.0    
      -1000.0     -1000.0       74.20       74.08       73.92       73.72       73.52       73.33       73.14       72.95    
        72.77       72.60       72.43       72.27       72.11       71.97       71.82       71.69       71.56       71.44    
        71.33       71.22       71.12       71.02       70.93       70.85       70.77       70.70       70.63       70.57    
        70.51       70.46       70.41       70.36       70.31       70.27       70.22       70.17       70.11       70.00    
  13  -1000.0     -1000.0     -1000.0     -1000.0     -1000.0       75.84       75.77       75.66       75.51       75.32    
        75.10       74.82       74.47       74.24       74.02       73.80       73.58       73.37       73.17       72.97    
        72.78       72.60       72.42       72.25       72.09       71.94       71.79       71.65       71.52       71.40    
        71.28       71.17       71.06       70.97       70.88       70.79       70.72       70.64       70.58       70.52    
        70.46       70.41       70.36       70.32       70.27       70.23       70.18       70.13       70.07       70.00    
  14  -1000.0     -1000.0     -1000.0       76.03       75.98       75.89       75.79       75.67       75.52       75.34    
        75.12       74.87       74.60       74.35       74.11       73.86       73.63       73.41       73.19       72.98    
        72.79       72.59       72.41       72.23       72.06       71.90       71.75       71.61       71.47       71.34    
        71.22       71.11       71.00       70.90       70.81       70.73       70.65       70.58       70.52       70.46    
        70.41       70.36       70.31       70.27       70.23       70.19       70.15       70.10       70.05       70.00    
  15  -1000.0     -1000.0       76.09       76.05       76.00       75.91       75.81       75.69       75.54       75.36    
        75.15       74.92       74.67       74.42       74.17       73.91       73.67       73.43       73.21       72.99    
        72.78       72.58       72.39       72.20       72.03       71.86       71.70       71.55       71.41       71.28    
        71.16       71.04       70.93       70.83       70.74       70.66       70.59       70.52       70.46       70.40    
        70.35       70.30       70.26       70.23       70.19       70.15       70.12       70.08       70.04       70.00    
  16  -1000.0     -1000.0       76.10       76.07       76.01       75.94       75.83       75.71       75.56       75.38    
        75.18       74.96       74.73       74.48       74.22       73.95       73.69       73.45       73.21       72.99    
        72.77       72.56       72.36       72.16       71.98       71.81       71.64       71.49       71.34       71.21    
        71.08       70.96       70.86       70.76       70.67       70.58       70.51       70.44       70.39       70.33    
        70.29       70.25       70.21       70.18       70.15       70.12       70.09       70.06       70.03       70.00    
  17  -1000.0     -1000.0       76.12       76.09       76.03       75.95       75.85       75.73       75.58       75.41    
        75.21       74.99       74.76       74.51       74.25       73.98       73.71       73.46       73.21       72.97    
        72.74       72.53       72.32       72.12       71.93       71.75       71.58       71.42       71.27       71.13    
        71.00       70.88       70.77       70.67       70.58       70.50       70.43       70.36       70.31       70.26    
        70.22       70.18       70.15       70.13       70.10       70.08       70.06       70.04       70.02       70.00    
  18  -1000.0     -1000.0       76.14       76.11       76.05       75.97       75.87       75.74       75.60       75.43    
        75.23       75.02       74.79       74.54       74.27       73.99       73.72       73.45       73.20       72.95    
        72.71       72.48       72.27       72.06       71.86       71.67       71.50       71.33       71.18       71.03    
        70.90       70.78       70.67       70.57       70.48       70.40       70.33       70.27       70.22       70.18    
        70.15       70.12       70.09       70.07       70.06       70.04       70.03       70.02       70.01       70.00    
  19  -1000.0       76.20       76.17       76.13       76.07       75.99       75.89       75.76       75.61       75.44    
        75.25       75.04       74.80       74.55       74.28       73.99       73.71       73.44       73.17       72.92    
        72.67       72.43       72.20       71.99       71.78       71.59       71.41       71.24       71.08       70.93    
        70.80       70.67       70.56       70.46       70.38       70.30       70.23       70.18       70.13       70.09    
        70.07       70.04       70.03       70.02       70.01       70.00       70.00       70.00       70.00       70.00    
  20  -1000.0       76.20       76.18       76.14       76.08       76.00       75.90       75.77       75.63       75.46    
        75.26       75.05       74.81       74.56       74.28       73.99       73.70       73.41       73.14       72.87    
        72.62       72.37       72.13       71.91       71.69       71.49       71.30       71.13       70.97       70.82    
        70.68       70.55       70.44       70.34       70.26       70.18       70.12       70.07       70.03       70.00    
        69.98       69.97       69.96       69.96       69.96       69.96       69.97       69.98       69.99       70.00    
  21  -1000.0       76.21       76.19       76.15       76.09       76.01       75.91       75.79       75.64       75.47    
        75.27       75.06       74.82       74.56       74.28       73.97       73.68       73.38       73.10       72.82    
        72.55       72.29       72.04       71.81       71.59       71.38       71.19       71.01       70.84       70.69    
        70.55       70.42       70.31       70.21       70.12       70.05       70.00       69.95       69.92       69.90    
        69.88       69.88       69.88       69.89       69.90       69.92       69.94       69.96       69.98       70.00    
  22  -1000.0       76.21       76.19       76.15       76.10       76.02       75.92       75.80       75.65       75.48    
        75.28       75.06       74.82       74.55       74.26       73.95       73.65       73.34       73.05       72.76    
        72.48       72.20       71.95       71.70       71.47       71.26       71.06       70.87       70.70       70.55    
        70.40       70.28       70.16       70.06       69.98       69.91       69.86       69.82       69.80       69.78    
        69.78       69.79       69.80       69.82       69.85       69.87       69.90       69.93       69.97       70.00    
  23  -1000.0       76.21       76.19       76.15       76.10       76.02       75.93       75.81       75.66       75.49    
        75.29       75.06       74.82       74.54       74.25       73.93       73.61       73.30       72.99       72.69    
        72.39       72.10       71.83       71.57       71.34       71.12       70.91       70.72       70.55       70.39    
        70.25       70.12       70.00       69.90       69.82       69.75       69.70       69.67       69.66       69.66    
        69.67       69.69       69.72       69.75       69.78       69.82       69.87       69.91       69.96       70.00    
  24  -1000.0       76.20       76.18       76.14       76.09       76.03       75.94       75.82       75.67       75.50    
        75.29       75.07       74.81       74.53       74.23       73.90       73.57       73.25       72.92       72.61    
        72.29       71.99       71.70       71.43       71.18       70.96       70.75       70.56       70.38       70.22    
        70.07       69.94       69.82       69.72       69.64       69.58       69.53       69.51       69.51       69.52    
        69.55       69.58       69.62       69.67       69.72       69.77       69.83       69.89       69.94       70.00    
  25  -1000.0       76.18       76.16       76.13       76.08       76.03       75.95       75.83       75.68       75.51    
        75.30       75.07       74.81       74.52       74.21       73.87       73.53       73.19       72.85       72.52    
        72.18       71.85       71.54       71.26       71.01       70.78       70.57       70.38       70.20       70.04    
        69.88       69.74       69.62       69.52       69.44       69.38       69.34       69.34       69.35       69.37    
        69.42       69.47       69.52       69.59       69.65       69.72       69.79       69.86       69.93       70.00    
  26  -1000.0       76.17       76.12       76.09       76.06       76.04       75.97       75.85       75.70       75.52    
        75.31       75.07       74.81       74.51       74.19       73.84       73.49       73.13       72.78       72.43    
        72.07       71.70       71.36       71.06       70.81       70.58       70.37       70.18       70.00       69.84    
        69.68       69.53       69.40       69.29       69.21       69.15       69.13       69.14       69.16       69.21    
        69.27       69.34       69.42       69.50       69.58       69.67       69.75       69.83       69.92       70.00    
  27  -1000.0     -1000.0       76.06       76.03       75.99       75.93       75.84       75.72       75.56       75.38    
        75.16       74.92       74.64       74.34       74.01       73.64       73.28       72.91       72.54       72.17    
        71.80       71.44       71.12       70.83       70.58       70.36       70.16       69.97       69.80       69.63    
        69.46       69.31       69.17       69.05       68.95       68.90       68.89       68.91       68.96       69.04    
        69.12       69.22       69.31       69.41       69.51       69.61       69.71       69.81       69.90       70.00    
  28  -1000.0     -1000.0       76.00       75.97       75.91       75.83       75.72       75.59       75.43       75.24    
        75.02       74.77       74.49       74.17       73.83       73.45       73.07       72.68       72.29       71.90    
        71.52       71.16       70.83       70.56       70.32       70.12       69.93       69.75       69.58       69.41    
        69.23       69.07       68.91       68.77       68.66       68.60       68.60       68.65       68.74       68.85    
        68.96       69.09       69.21       69.33       69.44       69.56       69.67       69.78       69.89       70.00    
  29  -1000.0     -1000.0       75.94       75.90       75.83       75.73       75.61       75.47       75.30       75.10    
        74.88       74.62       74.33       74.01       73.65       73.26       72.86       72.46       72.04       71.63    
        71.22       70.83       70.49       70.24       70.03       69.86       69.69       69.53       69.36       69.19    
        69.00       68.81       68.62       68.45       68.31       68.25       68.27       68.36       68.50       68.65    
        68.80       68.95       69.10       69.24       69.38       69.51       69.63       69.76       69.88       70.00    
  30  -1000.0     -1000.0       75.89       75.85       75.76       75.63       75.49       75.35       75.17       74.98    
        74.74       74.48       74.18       73.85       73.48       73.08       72.66       72.23       71.79       71.34    
        70.89       70.45       70.08       69.86       69.71       69.58       69.45       69.31       69.15       68.97    
        68.78       68.56       68.33       68.10       67.90       67.80       67.86       68.03       68.23       68.44    
        68.64       68.82       69.00       69.16       69.31       69.46       69.60       69.73       69.87       70.00    
  31  -1000.0     -1000.0       75.86       75.81       75.70       75.50       75.37       75.22       75.05       74.85    
        74.62       74.35       74.04       73.70       73.32       72.90       72.47       72.02       71.55       71.05    
        70.54       69.99       69.52       69.40       69.37       69.31       69.22       69.11       68.96       68.78    
        68.57       68.32       68.03       67.70       67.38       67.17       67.35       67.66       67.97       68.24    
        68.49       68.71       68.90       69.09       69.25       69.41       69.57       69.71       69.86       70.00    
  32  -1000.0     -1000.0     -1000.0     -1000.0     -1000.0       75.30       75.22       75.09       74.93       74.74    
        74.50       74.23       73.91       73.56       73.17       72.74       72.30       71.83       71.32       70.77    
        70.15       69.35       68.50       68.77       68.99       69.04       69.02       68.93       68.80       68.62    
        68.40       68.12       67.76       67.31       66.73       66.15       66.72       67.28       67.73       68.08    
        68.37       68.61       68.83       69.02       69.21       69.38       69.54       69.70       69.85       70.00    
  33  -1000.0     -1000.0     -1000.0     -1000.0     -1000.0       75.15       75.09       74.98       74.83       74.63    
        74.40       74.12       73.80       73.43       73.03       72.59       72.14       71.66       71.15       70.56    
        69.83       68.66       66.21       68.09       68.70       68.86       68.87       68.81       68.68       68.50    
        68.28       67.98       67.60       67.04       66.08       63.90       66.07       67.02       67.58       67.97    
        68.28       68.54       68.77       68.98       69.17       69.35       69.52       69.68       69.84       70.00    
  34  -1000.0     -1000.0     -1000.0     -1000.0     -1000.0       75.04       74.98       74.88       74.74       74.54    
        74.31       74.02       73.69       73.32       72.91       72.46       72.00       71.53       71.03       70.49    
        69.87       69.08       68.24       68.53       68.77       68.83       68.81       68.74       68.61       68.44    
        68.22       67.95       67.60       67.15       66.57       65.99       66.57       67.14       67.59       67.95    
        68.25       68.51       68.74       68.95       69.14       69.33       69.50       69.67       69.84       70.00    
  35  -1000.0     -1000.0     -1000.0     -1000.0     -1000.0       74.95       74.90       74.81       74.67       74.48    
        74.24       73.95       73.60       73.21       72.78       72.33       71.88       71.42       70.96       70.48    
        69.99       69.45       69.01       68.92       68.92       68.88       68.81       68.72       68.58       68.42    
        68.22       67.98       67.70       67.38       67.06       66.86       67.06       67.37       67.69       67.99    
        68.25       68.50       68.72       68.93       69.13       69.32       69.50       69.67       69.84       70.00    
  36  -1000.0     -1000.0     -1000.0     -1000.0     -1000.0       74.89       74.84       74.75       74.62       74.44    
        74.20       73.90       73.53       73.11       72.66       72.20       71.75       71.32       70.90       70.47    
        70.05       69.65       69.33       69.15       69.04       68.94       68.84       68.73       68.59       68.44    
        68.26       68.06       67.84       67.62       67.43       67.34       67.42       67.60       67.82       68.05    
        68.28       68.50       68.72       68.92       69.12       69.31       69.49       69.67       69.84       70.00    
  37  -1000.0     -1000.0     -1000.0     -1000.0     -1000.0       74.84       74.80       74.72       74.60       74.42    
        74.19       73.89       73.48       73.02       72.52       72.04       71.61       71.22       70.83       70.46    
        70.11       69.78       69.50       69.29       69.14       69.01       68.89       68.76       68.63       68.48    
        68.32       68.15       67.97       67.82       67.69       67.64       67.68       67.79       67.94       68.12    
        68.31       68.52       68.72       68.92       69.12       69.31       69.50       69.67       69.84       70.00    
  38  -1000.0     -1000.0     -1000.0     -1000.0     -1000.0       74.82       74.77       74.70       74.59       74.45    
        74.24       73.95       73.47       72.95       72.32       71.84       71.44       71.09       70.76       70.43    
        70.13       69.84       69.60       69.39       69.22       69.07       68.94       68.80       68.67       68.53    
        68.38       68.24       68.10       67.98       67.89       67.85       67.86       67.93       68.04       68.18    
        68.34       68.53       68.72       68.92       69.12       69.32       69.52       69.69       69.85       70.00    
  39  -1000.0     -1000.0     -1000.0     -1000.0     -1000.0     -1000.0       74.74       74.69       74.61       74.50    
        74.35       74.16     -1000.0     -1000.0       71.94       71.54       71.23       70.94       70.66       70.39    
        70.12       69.87       69.65       69.45       69.28       69.12       68.98       68.85       68.72       68.58    
        68.45       68.33       68.21       68.11       68.03       67.99       68.00       68.04       68.11       68.20    
        68.33       68.53       68.73       68.93       69.13       69.34       69.56       69.72       69.86       70.00    
  40  -1000.0     -1000.0     -1000.0     -1000.0     -1000.0     -1000.0       74.73       74.69       74.64       74.56    
        74.47     -1000.0     -1000.0     -1000.0     -1000.0       71.14       70.99       70.79       70.56       70.33    
        70.10       69.88       69.67       69.49       69.32       69.16       69.02       68.89       68.76       68.64    
        68.52       68.40       68.30       68.21       68.14       68.10       68.09       68.11       68.15       68.20    
        68.25     -1000.0     -1000.0     -1000.0     -1000.0     -1000.0       69.66       69.75       69.89       70.00    
  41  -1000.0     -1000.0     -1000.0     -1000.0     -1000.0     -1000.0     -1000.0       74.69       74.66       74.62    
      -1000.0     -1000.0     -1000.0     -1000.0     -1000.0       70.89       70.80       70.65       70.47       70.28    
        70.07       69.87       69.68       69.50       69.34       69.19       69.05       68.92       68.80       68.69    
        68.58       68.47       68.37       68.29       68.22       68.18       68.16       68.16       68.18       68.20    
        68.22     -1000.0     -1000.0     -1000.0     -1000.0     -1000.0     -1000.0     -1000.0       69.95       70.00    
  42  -1000.0     -1000.0     -1000.0     -1000.0     -1000.0     -1000.0     -1000.0     -1000.0     -1000.0     -1000.0    
      -1000.0     -1000.0     -1000.0     -1000.0     -1000.0       70.74       70.67       70.55       70.40       70.23    
        70.04       69.86       69.67       69.50       69.34       69.20       69.07       68.95       68.84       68.73    
        68.63       68.53       68.43       68.35       68.28       68.23       68.21       68.20       68.20       68.21    
        68.21     -1000.0     -1000.0     -1000.0     -1000.0     -1000.0     -1000.0     -1000.0     -1000.0     -1000.0    
  43  -1000.0     -1000.0     -1000.0     -1000.0     -1000.0     -1000.0     -1000.0     -1000.0     -1000.0     -1000.0    
      -1000.0     -1000.0     -1000.0     -1000.0     -1000.0       70.66       70.57       70.47       70.34       70.19    
        70.02       69.83       69.65       69.48       69.34       69.20       69.08       68.97       68.87       68.77    
        68.68       68.58       68.48       68.39       68.32       68.27       68.24       68.22       68.21       68.21    
        68.21     -1000.0     -1000.0     -1000.0     -1000.0     -1000.0     -1000.0     -1000.0     -1000.0     -1000.0    
  44  -1000.0     -1000.0     -1000.0     -1000.0     -1000.0     -1000.0     -1000.0     -1000.0     -1000.0     -1000.0    
      -1000.0     -1000.0     -1000.0     -1000.0     -1000.0     -1000.0       70.50       70.43       70.31       70.17    
        70.00       69.81       69.61       69.45       69.31       69.19       69.08       68.99       68.90       68.81    
        68.73       68.64       68.51       68.42       68.34       68.29       68.25       68.23       68.22       68.21    
        68.21     -1000.0     -1000.0     -1000.0     -1000.0     -1000.0     -1000.0     -1000.0     -1000.0     -1000.0    
  45  -1000.0     -1000.0     -1000.0     -1000.0     -1000.0     -1000.0     -1000.0     -1000.0     -1000.0     -1000.0    
      -1000.0     -1000.0     -1000.0     -1000.0     -1000.0     -1000.0     -1000.0     -1000.0     -1000.0     -1000.0    
      -1000.0     -1000.0       69.51       69.41       69.27       69.16       69.07       68.99       68.92       68.85    
        68.79       68.75     -1000.0     -1000.0     -1000.0     -1000.0     -1000.0     -1000.0     -1000.0     -1000.0    
      -1000.0     -1000.0     -1000.0     -1000.0     -1000.0     -1000.0     -1000.0     -1000.0     -1000.0     -1000.0    
  46  -1000.0     -1000.0     -1000.0     -1000.0     -1000.0     -1000.0     -1000.0     -1000.0     -1000.0     -1000.0    
      -1000.0     -1000.0     -1000.0     -1000.0     -1000.0     -1000.0     -1000.0     -1000.0     -1000.0     -1000.0    
      -1000.0     -1000.0     -1000.0     -1000.0       69.19       69.11       69.05       68.99       68.93       68.88    
        68.84       68.81     -1000.0     -1000.0     -1000.0     -1000.0     -1000.0     -1000.0     -1000.0     -1000.0    
      -1000.0     -1000.0     -1000.0     -1000.0     -1000.0     -1000.0     -1000.0     -1000.0     -1000.0     -1000.0    
  47  -1000.0     -1000.0     -1000.0     -1000.0     -1000.0     -1000.0     -1000.0     -1000.0     -1000.0     -1000.0    
      -1000.0     -1000.0     -1000.0     -1000.0     -1000.0     -1000.0     -1000.0     -1000.0     -1000.0     -1000.0    
      -1000.0     -1000.0     -1000.0     -1000.0     -1000.0       69.05       69.02       68.98       68.94       68.90    
        68.87       68.84     -1000.0     -1000.0     -1000.0     -1000.0     -1000.0     -1000.0     -1000.0     -1000.0    
      -1000.0     -1000.0     -1000.0     -1000.0     -1000.0     -1000.0     -1000.0     -1000.0     -1000.0     -1000.0    
  48  -1000.0     -1000.0     -1000.0     -1000.0     -1000.0     -1000.0     -1000.0     -1000.0     -1000.0     -1000.0    
      -1000.0     -1000.0     -1000.0     -1000.0     -1000.0     -1000.0     -1000.0     -1000.0     -1000.0     -1000.0    
      -1000.0     -1000.0     -1000.0     -1000.0     -1000.0       69.02       69.01       68.98       68.95       68.92    
        68.90     -1000.0     -1000.0     -1000.0     -1000.0     -1000.0     -1000.0     -1000.0     -1000.0     -1000.0    
      -1000.0     -1000.0     -1000.0     -1000.0     -1000.0     -1000.0     -1000.0     -1000.0     -1000.0     -1000.0    
  49  -1000.0     -1000.0     -1000.0     -1000.0     -1000.0     -1000.0     -1000.0     -1000.0     -1000.0     -1000.0    
      -1000.0     -1000.0     -1000.0     -1000.0     -1000.0     -1000.0     -1000.0     -1000.0     -1000.0     -1000.0    
      -1000.0     -1000.0     -1000.0     -1000.0     -1000.0       69.01       69.00       68.98       68.95       68.94    
      -1000.0     -1000.0     -1000.0     -1000.0     -1000.0     -1000.0     -1000.0     -1000.0     -1000.0     -1000.0    
      -1000.0     -1000.0     -1000.0     -1000.0     -1000.0     -1000.0     -1000.0     -1000.0     -1000.0     -1000.0    
  50  -1000.0     -1000.0     -1000.0     -1000.0     -1000.0     -1000.0     -1000.0     -1000.0     -1000.0     -1000.0    
      -1000.0     -1000.0     -1000.0     -1000.0     -1000.0     -1000.0     -1000.0     -1000.0     -1000.0     -1000.0    
      -1000.0     -1000.0     -1000.0     -1000.0     -1000.0     -1000.0     -1000.0     -1000.0     -1000.0     -1000.0    
      -1000.0     -1000.0     -1000.0     -1000.0     -1000.0     -1000.0     -1000.0     -1000.0     -1000.0     -1000.0    
      -1000.0     -1000.0     -1000.0     -1000.0     -1000.0     -1000.0     -1000.0     -1000.0     -1000.0     -1000.0    
1
              HEAD IN LAYER   2 AT END OF TIME STEP   1 IN STRESS PERIOD    1
  ---------------------------------------------------------------------------

            1           2           3           4           5           6           7           8           9          10
           11          12          13          14          15          16          17          18          19          20
           21          22          23          24          25          26          27          28          29          30
           31          32          33          34          35          36          37          38          39          40
           41          42          43          44          45          46          47          48          49          50
 ........................................................................................................................
   1  -1000.0     -1000.0     -1000.0     -1000.0     -1000.0     -1000.0     -1000.0     -1000.0     -1000.0     -1000.0    
      -1000.0     -1000.0     -1000.0     -1000.0     -1000.0     -1000.0     -1000.0     -1000.0     -1000.0     -1000.0    
      -1000.0     -1000.0     -1000.0     -1000.0     -1000.0     -1000.0     -1000.0     -1000.0     -1000.0     -1000.0    
      -1000.0     -1000.0     -1000.0     -1000.0     -1000.0     -1000.0     -1000.0     -1000.0     -1000.0     -1000.0    
      -1000.0     -1000.0     -1000.0     -1000.0     -1000.0     -1000.0     -1000.0     -1000.0     -1000.0     -1000.0    
   2  -1000.0     -1000.0     -1000.0     -1000.0     -1000.0     -1000.0     -1000.0     -1000.0     -1000.0     -1000.0    
      -1000.0     -1000.0     -1000.0     -1000.0     -1000.0     -1000.0     -1000.0     -1000.0     -1000.0     -1000.0    
      -1000.0     -1000.0     -1000.0       72.02       71.99       71.93       71.86       71.79       71.72       71.65    
        71.58       71.52       71.47       71.43     -1000.0     -1000.0     -1000.0     -1000.0     -1000.0     -1000.0    
      -1000.0     -1000.0     -1000.0     -1000.0     -1000.0     -1000.0     -1000.0     -1000.0     -1000.0     -1000.0    
   3  -1000.0     -1000.0     -1000.0     -1000.0     -1000.0     -1000.0     -1000.0     -1000.0     -1000.0     -1000.0    
      -1000.0     -1000.0     -1000.0     -1000.0     -1000.0     -1000.0     -1000.0     -1000.0     -1000.0     -1000.0    
      -1000.0     -1000.0       72.11       72.06       72.00       71.94       71.87       71.79       71.72       71.64    
        71.57       71.51       71.45       71.40       71.36     -1000.0     -1000.0     -1000.0     -1000.0     -1000.0    
      -1000.0     -1000.0     -1000.0     -1000.0     -1000.0     -1000.0     -1000.0     -1000.0     -1000.0     -1000.0    
   4  -1000.0     -1000.0     -1000.0     -1000.0     -1000.0     -1000.0     -1000.0     -1000.0     -1000.0     -1000.0    
      -1000.0     -1000.0     -1000.0     -1000.0     -1000.0     -1000.0     -1000.0     -1000.0     -1000.0     -1000.0    
      -1000.0     -1000.0       72.16       72.10       72.03       71.95       71.87       71.79       71.71       71.63    
        71.56       71.49       71.42       71.36       71.32     -1000.0     -1000.0     -1000.0     -1000.0     -1000.0    
      -1000.0     -1000.0     -1000.0     -1000.0     -1000.0     -1000.0     -1000.0     -1000.0     -1000.0     -1000.0    
   5  -1000.0     -1000.0     -1000.0     -1000.0     -1000.0     -1000.0     -1000.0     -1000.0     -1000.0     -1000.0    
      -1000.0     -1000.0     -1000.0     -1000.0     -1000.0     -1000.0     -1000.0       72.86       72.80       72.71    
        72.59       72.44       72.27       72.16       72.06       71.97       71.88       71.79       71.71       71.62    
        71.54       71.46       71.39       71.31       71.23       71.11       71.00       70.92       70.84       70.77    
        70.71       70.66       70.63       70.60     -1000.0     -1000.0     -1000.0     -1000.0     -1000.0     -1000.0    
   6  -1000.0     -1000.0     -1000.0     -1000.0     -1000.0     -1000.0     -1000.0     -1000.0     -1000.0     -1000.0    
      -1000.0     -1000.0     -1000.0     -1000.0     -1000.0     -1000.0     -1000.0       72.92       72.84       72.73    
        72.61       72.47       72.33       72.20       72.09       71.99       71.89       71.79       71.70       71.61    
        71.52       71.44       71.35       71.27       71.18       71.08       70.99       70.91       70.83       70.76    
        70.70       70.65       70.61       70.58       70.55     -1000.0     -1000.0     -1000.0     -1000.0     -1000.0    
   7  -1000.0     -1000.0     -1000.0     -1000.0     -1000.0     -1000.0     -1000.0     -1000.0     -1000.0     -1000.0    
      -1000.0     -1000.0     -1000.0       73.65       73.57       73.43       73.26       73.06       72.91       72.78    
        72.64       72.50       72.36       72.23       72.11       72.00       71.89       71.79       71.69       71.59    
        71.50       71.41       71.32       71.23       71.14       71.05       70.97       70.89       70.81       70.75    
        70.69       70.63       70.59       70.55       70.52     -1000.0     -1000.0     -1000.0     -1000.0     -1000.0    
   8  -1000.0     -1000.0     -1000.0     -1000.0     -1000.0     -1000.0     -1000.0     -1000.0     -1000.0     -1000.0    
      -1000.0     -1000.0       73.78       73.71       73.61       73.46       73.30       73.13       72.97       72.82    
        72.67       72.53       72.39       72.25       72.13       72.00       71.89       71.78       71.67       71.57    
        71.47       71.38       71.29       71.20       71.11       71.02       70.94       70.86       70.79       70.72    
        70.66       70.61       70.56       70.51       70.47       70.40       70.36       70.33     -1000.0     -1000.0    
   9  -1000.0     -1000.0     -1000.0     -1000.0     -1000.0     -1000.0     -1000.0     -1000.0     -1000.0     -1000.0    
      -1000.0     -1000.0       73.83       73.77       73.66       73.51       73.35       73.18       73.02       72.86    
        72.70       72.55       72.41       72.27       72.13       72.00       71.88       71.77       71.65       71.55    
        71.44       71.35       71.25       71.16       71.07       70.99       70.90       70.83       70.76       70.69    
        70.63       70.58       70.52       70.48       70.43       70.38       70.34       70.31     -1000.0     -1000.0    
  10  -1000.0     -1000.0     -1000.0     -1000.0     -1000.0     -1000.0     -1000.0     -1000.0     -1000.0     -1000.0    
      -1000.0     -1000.0       73.91       73.85       73.73       73.57       73.40       73.23       73.06       72.90    
        72.73       72.57       72.42       72.27       72.13       72.00       71.87       71.75       71.63       71.52    
        71.41       71.31       71.21       71.12       71.03       70.94       70.86       70.79       70.72       70.65    
        70.59       70.54       70.49       70.44       70.39       70.34       70.30       70.26       70.22     -1000.0    
  11  -1000.0     -1000.0     -1000.0     -1000.0     -1000.0     -1000.0     -1000.0     -1000.0     -1000.0     -1000.0    
      -1000.0     -1000.0       74.03       73.95       73.82       73.64       73.46       73.28       73.10       72.93    
        72.75       72.59       72.43       72.27       72.13       71.98       71.85       71.72       71.60       71.48    
        71.37       71.27       71.17       71.07       70.98       70.90       70.82       70.75       70.68       70.61    
        70.55       70.50       70.45       70.40       70.35       70.31       70.26       70.22       70.18     -1000.0    
  12  -1000.0     -1000.0     -1000.0     -1000.0     -1000.0     -1000.0     -1000.0     -1000.0     -1000.0     -1000.0    
      -1000.0     -1000.0       74.20       74.08       73.92       73.72       73.52       73.33       73.14       72.95    
        72.77       72.60       72.43       72.27       72.11       71.97       71.82       71.69       71.56       71.44    
        71.33       71.22       71.12       71.02       70.93       70.85       70.77       70.70       70.63       70.57    
        70.51       70.46       70.41       70.36       70.31       70.27       70.22       70.17       70.11       70.00    
  13  -1000.0     -1000.0     -1000.0     -1000.0     -1000.0       75.84       75.77       75.66       75.51       75.32    
        75.10       74.82       74.47       74.24       74.02       73.80       73.58       73.37       73.17       72.97    
        72.78       72.60       72.42       72.25       72.09       71.94       71.79       71.65       71.52       71.40    
        71.28       71.17       71.06       70.97       70.88       70.79       70.72       70.64       70.58       70.52    
        70.46       70.41       70.36       70.32       70.27       70.23       70.18       70.13       70.07       70.00    
  14  -1000.0     -1000.0     -1000.0       76.03       75.98       75.89       75.79       75.67       75.52       75.34    
        75.12       74.87       74.60       74.35       74.11       73.86       73.63       73.41       73.19       72.98    
        72.79       72.59       72.41       72.23       72.06       71.90       71.75       71.61       71.47       71.34    
        71.22       71.11       71.00       70.90       70.81       70.73       70.65       70.58       70.52       70.46    
        70.41       70.36       70.31       70.27       70.23       70.19       70.15       70.10       70.05       70.00    
  15  -1000.0     -1000.0       76.09       76.05       76.00       75.91       75.81       75.69       75.54       75.36    
        75.15       74.92       74.67       74.42       74.17       73.91       73.67       73.43       73.21       72.99    
        72.78       72.58       72.39       72.20       72.03       71.86       71.70       71.55       71.41       71.28    
        71.16       71.04       70.93       70.83       70.74       70.66       70.59       70.52       70.46       70.40    
        70.35       70.30       70.26       70.23       70.19       70.15       70.12       70.08       70.04       70.00    
  16  -1000.0     -1000.0       76.10       76.07       76.01       75.94       75.83       75.71       75.56       75.38    
        75.18       74.96       74.73       74.48       74.22       73.95       73.69       73.45       73.21       72.99    
        72.77       72.56       72.36       72.16       71.98       71.81       71.64       71.49       71.34       71.21    
        71.08       70.96       70.86       70.76       70.67       70.58       70.51       70.44       70.39       70.33    
        70.29       70.25       70.21       70.18       70.15       70.12       70.09       70.06       70.03       70.00    
  17  -1000.0     -1000.0       76.12       76.09       76.03       75.95       75.85       75.73       75.58       75.41    
        75.21       74.99       74.76       74.51       74.25       73.98       73.71       73.46       73.21       72.97    
        72.74       72.53       72.32       72.12       71.93       71.75       71.58       71.42       71.27       71.13    
        71.00       70.88       70.77       70.67       70.58       70.50       70.43       70.36       70.31       70.26    
        70.22       70.18       70.15       70.13       70.10       70.08       70.06       70.04       70.02       70.00    
  18  -1000.0     -1000.0       76.14       76.11       76.05       75.97       75.87       75.74       75.60       75.43    
        75.23       75.02       74.79       74.54       74.27       73.99       73.72       73.45       73.20       72.95    
        72.71       72.48       72.27       72.06       71.86       71.67       71.50       71.33       71.18       71.03    
        70.90       70.78       70.67       70.57       70.48       70.40       70.33       70.27       70.22       70.18    
        70.15       70.12       70.09       70.07       70.06       70.04       70.03       70.02       70.01       70.00    
  19  -1000.0       76.20       76.17       76.13       76.07       75.99       75.89       75.76       75.61       75.44    
        75.25       75.04       74.80       74.55       74.28       73.99       73.71       73.44       73.17       72.92    
        72.67       72.43       72.20       71.99       71.78       71.59       71.41       71.24       71.08       70.93    
        70.80       70.67       70.56       70.46       70.38       70.30       70.23       70.18       70.13       70.09    
        70.07       70.04       70.03       70.02       70.01       70.00       70.00       70.00       70.00       70.00    
  20  -1000.0       76.20       76.18       76.14       76.08       76.00       75.90       75.77       75.63       75.46    
        75.26       75.05       74.81       74.56       74.28       73.99       73.70       73.41       73.14       72.87    
        72.62       72.37       72.13       71.91       71.69       71.49       71.30       71.13       70.97       70.82    
        70.68       70.55       70.44       70.34       70.26       70.18       70.12       70.07       70.03       70.00    
        69.98       69.97       69.96       69.96       69.96       69.96       69.97       69.98       69.99       70.00    
  21  -1000.0       76.21       76.19       76.15       76.09       76.01       75.91       75.79       75.64       75.47    
        75.27       75.06       74.82       74.56       74.28       73.97       73.68       73.38       73.10       72.82    
        72.55       72.29       72.04       71.81       71.59       71.38       71.19       71.01       70.84       70.69    
        70.55       70.42       70.31       70.21       70.12       70.05       70.00       69.95       69.92       69.90    
        69.88       69.88       69.88       69.89       69.90       69.92       69.94       69.96       69.98       70.00    
  22  -1000.0       76.21       76.19       76.15       76.10       76.02       75.92       75.80       75.65       75.48    
        75.28       75.06       74.82       74.55       74.26       73.95       73.65       73.34       73.05       72.76    
        72.48       72.20       71.95       71.70       71.47       71.26       71.06       70.87       70.70       70.55    
        70.40       70.28       70.16       70.06       69.98       69.91       69.86       69.82       69.80       69.78    
        69.78       69.79       69.80       69.82       69.85       69.87       69.90       69.93       69.97       70.00    
  23  -1000.0       76.21       76.19       76.15       76.10       76.02       75.93       75.81       75.66       75.49    
        75.29       75.06       74.82       74.54       74.25       73.93       73.61       73.30       72.99       72.69    
        72.39       72.10       71.83       71.57       71.34       71.12       70.91       70.72       70.55       70.39    
        70.25       70.12       70.00       69.90       69.82       69.75       69.70       69.67       69.66       69.66    
        69.67       69.69       69.72       69.75       69.78       69.82       69.87       69.91       69.96       70.00    
  24  -1000.0       76.20       76.18       76.14       76.09       76.03       75.94       75.82       75.67       75.49    
        75.29       75.07       74.81       74.53       74.23       73.90       73.57       73.25       72.92       72.61    
        72.29       71.99       71.70       71.43       71.18       70.96       70.75       70.56       70.38       70.22    
        70.07       69.94       69.82       69.72       69.64       69.58       69.53       69.51       69.51       69.52    
        69.55       69.58       69.62       69.67       69.72       69.77       69.83       69.89       69.94       70.00    
  25  -1000.0       76.18       76.16       76.12       76.08       76.03       75.95       75.83       75.68       75.51    
        75.30       75.07       74.81       74.52       74.21       73.87       73.53       73.19       72.85       72.52    
        72.18       71.85       71.54       71.26       71.01       70.78       70.57       70.38       70.20       70.04    
        69.88       69.74       69.62       69.52       69.44       69.38       69.34       69.34       69.35       69.37    
        69.42       69.47       69.52       69.59       69.65       69.72       69.79       69.86       69.93       70.00    
  26  -1000.0       76.17       76.12       76.09       76.06       76.04       75.97       75.85       75.70       75.52    
        75.31       75.07       74.81       74.51       74.19       73.84       73.49       73.13       72.78       72.43    
        72.07       71.70       71.36       71.06       70.81       70.58       70.37       70.18       70.00       69.84    
        69.68       69.53       69.40       69.29       69.21       69.15       69.13       69.14       69.16       69.21    
        69.27       69.34       69.42       69.50       69.58       69.67       69.75       69.83       69.92       70.00    
  27  -1000.0     -1000.0       76.06       76.03       75.99       75.93       75.84       75.72       75.56       75.38    
        75.16       74.92       74.64       74.34       74.01       73.64       73.28       72.91       72.54       72.17    
        71.80       71.44       71.12       70.83       70.58       70.36       70.16       69.97       69.80       69.63    
        69.46       69.31       69.17       69.05       68.95       68.90       68.89       68.91       68.96       69.04    
        69.12       69.22       69.31       69.41       69.51       69.61       69.71       69.81       69.90       70.00    
  28  -1000.0     -1000.0       76.00       75.97       75.91       75.83       75.72       75.59       75.43       75.24    
        75.02       74.77       74.49       74.17       73.83       73.45       73.07       72.68       72.29       71.90    
        71.52       71.16       70.83       70.56       70.32       70.12       69.93       69.75       69.58       69.41    
        69.23       69.07       68.91       68.77       68.66       68.60       68.60       68.65       68.74       68.85    
        68.96       69.09       69.21       69.33       69.44       69.56       69.67       69.78       69.89       70.00    
  29  -1000.0     -1000.0       75.94       75.90       75.83       75.73       75.61       75.47       75.30       75.10    
        74.88       74.62       74.33       74.01       73.65       73.26       72.86       72.46       72.04       71.63    
        71.22       70.83       70.49       70.24       70.03       69.86       69.69       69.53       69.36       69.19    
        69.00       68.81       68.62       68.45       68.31       68.25       68.27       68.36       68.50       68.65    
        68.80       68.95       69.10       69.24       69.38       69.51       69.63       69.76       69.88       70.00    
  30  -1000.0     -1000.0       75.89       75.85       75.76       75.63       75.49       75.35       75.17       74.98    
        74.74       74.48       74.18       73.85       73.48       73.08       72.66       72.23       71.79       71.34    
        70.89       70.45       70.08       69.86       69.71       69.58       69.45       69.31       69.15       68.97    
        68.78       68.56       68.33       68.10       67.90       67.80       67.86       68.03       68.23       68.44    
        68.64       68.82       69.00       69.16       69.31       69.46       69.60       69.73       69.87       70.00    
  31  -1000.0     -1000.0       75.86       75.81       75.70       75.50       75.37       75.22       75.05       74.85    
        74.62       74.35       74.04       73.70       73.32       72.90       72.47       72.02       71.55       71.05    
        70.54       69.99       69.52       69.40       69.37       69.31       69.22       69.11       68.96       68.78    
        68.57       68.32       68.03       67.70       67.38       67.17       67.35       67.66       67.97       68.24    
        68.49       68.71       68.90       69.09       69.25       69.41       69.57       69.71       69.86       70.00    
  32  -1000.0     -1000.0     -1000.0     -1000.0     -1000.0       75.30       75.22       75.09       74.93       74.74    
        74.50       74.23       73.91       73.56       73.17       72.74       72.30       71.83       71.32       70.77    
        70.15       69.35       68.50       68.77       68.99       69.04       69.02       68.93       68.80       68.62    
        68.40       68.12       67.76       67.31       66.73       66.15       66.72       67.28       67.73       68.08    
        68.37       68.61       68.83       69.02       69.21       69.38       69.54       69.70       69.85       70.00    
  33  -1000.0     -1000.0     -1000.0     -1000.0     -1000.0       75.15       75.09       74.98       74.83       74.63    
        74.40       74.12       73.80       73.43       73.03       72.59       72.14       71.66       71.15       70.56    
        69.83       68.66       66.24       68.09       68.70       68.86       68.87       68.81       68.68       68.50    
        68.28       67.98       67.60       67.04       66.08       63.93       66.07       67.02       67.58       67.97    
        68.28       68.54       68.77       68.98       69.17       69.35       69.52       69.68       69.84       70.00    
  34  -1000.0     -1000.0     -1000.0     -1000.0     -1000.0       75.04       74.98       74.88       74.74       74.54    
        74.31       74.02       73.69       73.32       72.91       72.46       72.00       71.53       71.03       70.49    
        69.87       69.08       68.24       68.53       68.77       68.83       68.81       68.74       68.61       68.44    
        68.22       67.95       67.60       67.15       66.57       65.99       66.57       67.14       67.59       67.95    
        68.25       68.51       68.74       68.95       69.14       69.33       69.50       69.67       69.84       70.00    
  35  -1000.0     -1000.0     -1000.0     -1000.0     -1000.0       74.95       74.90       74.81       74.67       74.48    
        74.24       73.95       73.60       73.21       72.78       72.33       71.88       71.42       70.96       70.48    
        69.99       69.45       69.01       68.92       68.92       68.88       68.81       68.72       68.58       68.42    
        68.22       67.98       67.70       67.38       67.06       66.86       67.06       67.37       67.69       67.99    
        68.25       68.50       68.72       68.93       69.13       69.32       69.50       69.67       69.84       70.00    
  36  -1000.0     -1000.0     -1000.0     -1000.0     -1000.0       74.89       74.84       74.75       74.62       74.44    
        74.20       73.90       73.53       73.11       72.66       72.20       71.75       71.32       70.90       70.47    
        70.05       69.65       69.33       69.15       69.04       68.94       68.84       68.73       68.59       68.44    
        68.26       68.06       67.84       67.62       67.43       67.34       67.42       67.60       67.82       68.05    
        68.28       68.50       68.72       68.92       69.12       69.31       69.49       69.67       69.84       70.00    
  37  -1000.0     -1000.0     -1000.0     -1000.0     -1000.0       74.84       74.80       74.72       74.60       74.42    
        74.19       73.89       73.48       73.02       72.52       72.04       71.61       71.22       70.83       70.46    
        70.11       69.78       69.50       69.29       69.14       69.01       68.89       68.76       68.63       68.48    
        68.32       68.15       67.97       67.82       67.69       67.64       67.68       67.79       67.94       68.12    
        68.31       68.52       68.72       68.92       69.12       69.31       69.50       69.67       69.84       70.00    
  38  -1000.0     -1000.0     -1000.0     -1000.0     -1000.0       74.82       74.77       74.70       74.59       74.45    
        74.24       73.95       73.47       72.95       72.32       71.84       71.44       71.09       70.76       70.43    
        70.13       69.84       69.60       69.39       69.22       69.07       68.94       68.80       68.67       68.53    
        68.38       68.24       68.10       67.98       67.89       67.85       67.86       67.93       68.04       68.18    
        68.34       68.53       68.72       68.92       69.12       69.32       69.52       69.69       69.85       70.00    
  39  -1000.0     -1000.0     -1000.0     -1000.0     -1000.0     -1000.0       74.74       74.69       74.61       74.50    
        74.35       74.16     -1000.0     -1000.0       71.94       71.54       71.23       70.94       70.66       70.39    
        70.12       69.87       69.65       69.45       69.28       69.12       68.98       68.85       68.72       68.58    
        68.45       68.33       68.21       68.11       68.03       67.99       68.00       68.04       68.11       68.20    
        68.33       68.53       68.73       68.93       69.13       69.34       69.56       69.72       69.86       70.00    
  40  -1000.0     -1000.0     -1000.0     -1000.0     -1000.0     -1000.0       74.73       74.69       74.64       74.56    
        74.47     -1000.0     -1000.0     -1000.0     -1000.0       71.14       70.99       70.79       70.56       70.33    
        70.10       69.88       69.67       69.49       69.32       69.16       69.02       68.89       68.76       68.64    
        68.52       68.40       68.30       68.21       68.14       68.10       68.09       68.11       68.15       68.20    
        68.25     -1000.0     -1000.0     -1000.0     -1000.0     -1000.0       69.66       69.75       69.89       70.00    
  41  -1000.0     -1000.0     -1000.0     -1000.0     -1000.0     -1000.0     -1000.0       74.69       74.66       74.62    
      -1000.0     -1000.0     -1000.0     -1000.0     -1000.0       70.89       70.80       70.65       70.47       70.28    
        70.07       69.87       69.68       69.50       69.34       69.19       69.05       68.92       68.80       68.69    
        68.58       68.47       68.37       68.29       68.22       68.18       68.16       68.16       68.18       68.20    
        68.22     -1000.0     -1000.0     -1000.0     -1000.0     -1000.0     -1000.0     -1000.0       69.95       70.00    
  42  -1000.0     -1000.0     -1000.0     -1000.0     -1000.0     -1000.0     -1000.0     -1000.0     -1000.0     -1000.0    
      -1000.0     -1000.0     -1000.0     -1000.0     -1000.0       70.74       70.67       70.55       70.40       70.23    
        70.04       69.86       69.67       69.50       69.34       69.20       69.07       68.95       68.84       68.73    
        68.63       68.53       68.43       68.35       68.28       68.23       68.21       68.20       68.20       68.21    
        68.21     -1000.0     -1000.0     -1000.0     -1000.0     -1000.0     -1000.0     -1000.0     -1000.0     -1000.0    
  43  -1000.0     -1000.0     -1000.0     -1000.0     -1000.0     -1000.0     -1000.0     -1000.0     -1000.0     -1000.0    
      -1000.0     -1000.0     -1000.0     -1000.0     -1000.0       70.66       70.57       70.47       70.34       70.19    
        70.02       69.83       69.65       69.48       69.34       69.20       69.08       68.97       68.87       68.77    
        68.68       68.58       68.48       68.39       68.32       68.27       68.24       68.22       68.21       68.21    
        68.21     -1000.0     -1000.0     -1000.0     -1000.0     -1000.0     -1000.0     -1000.0     -1000.0     -1000.0    
  44  -1000.0     -1000.0     -1000.0     -1000.0     -1000.0     -1000.0     -1000.0     -1000.0     -1000.0     -1000.0    
      -1000.0     -1000.0     -1000.0     -1000.0     -1000.0     -1000.0       70.50       70.43       70.31       70.17    
        70.00       69.81       69.61       69.45       69.31       69.19       69.08       68.99       68.90       68.81    
        68.73       68.64       68.51       68.42       68.34       68.29       68.25       68.23       68.22       68.21    
        68.21     -1000.0     -1000.0     -1000.0     -1000.0     -1000.0     -1000.0     -1000.0     -1000.0     -1000.0    
  45  -1000.0     -1000.0     -1000.0     -1000.0     -1000.0     -1000.0     -1000.0     -1000.0     -1000.0     -1000.0    
      -1000.0     -1000.0     -1000.0     -1000.0     -1000.0     -1000.0     -1000.0     -1000.0     -1000.0     -1000.0    
      -1000.0     -1000.0       69.51       69.41       69.27       69.16       69.07       68.99       68.92       68.85    
        68.79       68.75     -1000.0     -1000.0     -1000.0     -1000.0     -1000.0     -1000.0     -1000.0     -1000.0    
      -1000.0     -1000.0     -1000.0     -1000.0     -1000.0     -1000.0     -1000.0     -1000.0     -1000.0     -1000.0    
  46  -1000.0     -1000.0     -1000.0     -1000.0     -1000.0     -1000.0     -1000.0     -1000.0     -1000.0     -1000.0    
      -1000.0     -1000.0     -1000.0     -1000.0     -1000.0     -1000.0     -1000.0     -1000.0     -1000.0     -1000.0    
      -1000.0     -1000.0     -1000.0     -1000.0       69.19       69.11       69.05       68.99       68.93       68.88    
        68.84       68.81     -1000.0     -1000.0     -1000.0     -1000.0     -1000.0     -1000.0     -1000.0     -1000.0    
      -1000.0     -1000.0     -1000.0     -1000.0     -1000.0     -1000.0     -1000.0     -1000.0     -1000.0     -1000.0    
  47  -1000.0     -1000.0     -1000.0     -1000.0     -1000.0     -1000.0     -1000.0     -1000.0     -1000.0     -1000.0    
      -1000.0     -1000.0     -1000.0     -1000.0     -1000.0     -1000.0     -1000.0     -1000.0     -1000.0     -1000.0    
      -1000.0     -1000.0     -1000.0     -1000.0     -1000.0       69.05       69.02       68.98       68.94       68.90    
        68.87       68.84     -1000.0     -1000.0     -1000.0     -1000.0     -1000.0     -1000.0     -1000.0     -1000.0    
      -1000.0     -1000.0     -1000.0     -1000.0     -1000.0     -1000.0     -1000.0     -1000.0     -1000.0     -1000.0    
  48  -1000.0     -1000.0     -1000.0     -1000.0     -1000.0     -1000.0     -1000.0     -1000.0     -1000.0     -1000.0    
      -1000.0     -1000.0     -1000.0     -1000.0     -1000.0     -1000.0     -1000.0     -1000.0     -1000.0     -1000.0    
      -1000.0     -1000.0     -1000.0     -1000.0     -1000.0       69.02       69.01       68.98       68.95       68.92    
        68.90     -1000.0     -1000.0     -1000.0     -1000.0     -1000.0     -1000.0     -1000.0     -1000.0     -1000.0    
      -1000.0     -1000.0     -1000.0     -1000.0     -1000.0     -1000.0     -1000.0     -1000.0     -1000.0     -1000.0    
  49  -1000.0     -1000.0     -1000.0     -1000.0     -1000.0     -1000.0     -1000.0     -1000.0     -1000.0     -1000.0    
      -1000.0     -1000.0     -1000.0     -1000.0     -1000.0     -1000.0     -1000.0     -1000.0     -1000.0     -1000.0    
      -1000.0     -1000.0     -1000.0     -1000.0     -1000.0       69.01       69.00       68.98       68.95       68.94    
      -1000.0     -1000.0     -1000.0     -1000.0     -1000.0     -1000.0     -1000.0     -1000.0     -1000.0     -1000.0    
      -1000.0     -1000.0     -1000.0     -1000.0     -1000.0     -1000.0     -1000.0     -1000.0     -1000.0     -1000.0    
  50  -1000.0     -1000.0     -1000.0     -1000.0     -1000.0     -1000.0     -1000.0     -1000.0     -1000.0     -1000.0    
      -1000.0     -1000.0     -1000.0     -1000.0     -1000.0     -1000.0     -1000.0     -1000.0     -1000.0     -1000.0    
      -1000.0     -1000.0     -1000.0     -1000.0     -1000.0     -1000.0     -1000.0     -1000.0     -1000.0     -1000.0    
      -1000.0     -1000.0     -1000.0     -1000.0     -1000.0     -1000.0     -1000.0     -1000.0     -1000.0     -1000.0    
      -1000.0     -1000.0     -1000.0     -1000.0     -1000.0     -1000.0     -1000.0     -1000.0     -1000.0     -1000.0    

 HEAD WILL BE SAVED ON UNIT   51 AT END OF TIME STEP    1, STRESS PERIOD    1
1
  VOLUMETRIC BUDGET FOR ENTIRE MODEL AT END OF TIME STEP    1, STRESS PERIOD   1
  ------------------------------------------------------------------------------

     CUMULATIVE VOLUMES      L**3       RATES FOR THIS TIME STEP      L**3/T
     ------------------                 ------------------------

           IN:                                      IN:
           ---                                      ---
             STORAGE =           0.0000               STORAGE =           0.0000
       CONSTANT HEAD =        3505.3000         CONSTANT HEAD =        3505.3000
               WELLS =           0.0000                 WELLS =           0.0000
                  ET =           0.0000                    ET =           0.0000
            RECHARGE =       17245.0000              RECHARGE =       17245.0000
      STREAM LEAKAGE =        4259.5000        STREAM LEAKAGE =        4259.5000

            TOTAL IN =       25009.8008              TOTAL IN =       25009.8008

          OUT:                                     OUT:
          ----                                     ----
             STORAGE =           0.0000               STORAGE =           0.0000
       CONSTANT HEAD =         509.8001         CONSTANT HEAD =         509.8001
               WELLS =       24500.0000                 WELLS =       24500.0000
                  ET =           0.0000                    ET =           0.0000
            RECHARGE =           0.0000              RECHARGE =           0.0000
      STREAM LEAKAGE =           0.0000        STREAM LEAKAGE =           0.0000

           TOTAL OUT =       25009.8008             TOTAL OUT =       25009.8008

            IN - OUT =           0.0000              IN - OUT =           0.0000

 PERCENT DISCREPANCY =           0.00     PERCENT DISCREPANCY =           0.00






         TIME SUMMARY AT END OF TIME STEP    1 IN STRESS PERIOD    1
                    SECONDS     MINUTES      HOURS       DAYS        YEARS
                    -----------------------------------------------------------
   TIME STEP LENGTH  86400.      1440.0      24.000      1.0000     2.73785E-03
 STRESS PERIOD TIME  86400.      1440.0      24.000      1.0000     2.73785E-03
         TOTAL TIME  86400.      1440.0      24.000      1.0000     2.73785E-03
1

 Run end date and time (yyyy/mm/dd hh:mm:ss): 2022/02/23 14:26:52
 Elapsed run time:  0.116 Seconds

