                                  MODFLOW-2005     
      U.S. GEOLOGICAL SURVEY MODULAR FINITE-DIFFERENCE GROUND-WATER FLOW MODEL
                            VERSION 1.12.00 2/3/2017

 LIST FILE: tucson.list
                         UNIT    2

 OPENING tucson.dis
 FILE TYPE:DIS   UNIT   11   STATUS:OLD    
 FORMAT:FORMATTED              ACCESS:SEQUENTIAL          

 OPENING tucson.bas
 FILE TYPE:BAS6   UNIT   13   STATUS:OLD    
 FORMAT:FORMATTED              ACCESS:SEQUENTIAL          

 OPENING tucson.oc
 FILE TYPE:OC   UNIT   14   STATUS:OLD    
 FORMAT:FORMATTED              ACCESS:SEQUENTIAL          

 OPENING tucson.chd
 FILE TYPE:CHD   UNIT   24   STATUS:OLD    
 FORMAT:FORMATTED              ACCESS:SEQUENTIAL          

 OPENING tucson.rch
 FILE TYPE:RCH   UNIT   19   STATUS:OLD    
 FORMAT:FORMATTED              ACCESS:SEQUENTIAL          

 OPENING tucson.evt
 FILE TYPE:EVT   UNIT   22   STATUS:OLD    
 FORMAT:FORMATTED              ACCESS:SEQUENTIAL          

 OPENING tucson.wel
 FILE TYPE:WEL   UNIT   20   STATUS:OLD    
 FORMAT:FORMATTED              ACCESS:SEQUENTIAL          

 OPENING tucson.hds
 FILE TYPE:DATA(BINARY)   UNIT   51   STATUS:REPLACE
 FORMAT:BINARY                 ACCESS:SEQUENTIAL          

 OPENING tucson.cbc
 FILE TYPE:DATA(BINARY)   UNIT   53   STATUS:REPLACE
 FORMAT:BINARY                 ACCESS:SEQUENTIAL          

 BAS -- BASIC PACKAGE, VERSION 7, 5/2/2005 INPUT READ FROM UNIT   13
 
 MODFLOW was compiled using mixed precision
 Precision of REAL variables:           6
 Precision of DOUBLE PRECISION variables:          15

 DISCRETIZATION INPUT DATA READ FROM UNIT   11
 # DIS package for  MODFLOW-2005, generated by Flopy.
    3 LAYERS       130 ROWS       100 COLUMNS
    1 STRESS PERIOD(S) IN SIMULATION
 MODEL TIME UNIT IS DAYS
 MODEL LENGTH UNIT IS METERS
  Confining bed flag for each layer:
   0   0   0

                     DELR =   2640.00    

                     DELC =   2640.00    



           TOP ELEVATION OF LAYER 1
 READING ON UNIT   11 WITH FORMAT: (FREE)              



             MODEL LAYER BOTTOM EL. FOR LAYER   1
 READING ON UNIT   11 WITH FORMAT: (FREE)              



             MODEL LAYER BOTTOM EL. FOR LAYER   2
 READING ON UNIT   11 WITH FORMAT: (FREE)              



             MODEL LAYER BOTTOM EL. FOR LAYER   3
 READING ON UNIT   11 WITH FORMAT: (FREE)              


 STRESS PERIOD     LENGTH       TIME STEPS     MULTIPLIER FOR DELT    SS FLAG
 ----------------------------------------------------------------------------
        1         1.000000          1                    1.000         SS

 STEADY-STATE SIMULATION



 
 # BAS6 package for  MODFLOW-2005, generated by Flopy.                           
 THE FREE FORMAT OPTION HAS BEEN SELECTED



                     BOUNDARY ARRAY FOR LAYER   1
 READING ON UNIT   13 WITH FORMAT: (FREE)              



                     BOUNDARY ARRAY FOR LAYER   2
 READING ON UNIT   13 WITH FORMAT: (FREE)              



                     BOUNDARY ARRAY FOR LAYER   3
 READING ON UNIT   13 WITH FORMAT: (FREE)              

 AQUIFER HEAD WILL BE SET TO  -999.99     AT ALL NO-FLOW NODES (IBOUND=0).



                       INITIAL HEAD FOR LAYER   1
 READING ON UNIT   13 WITH FORMAT: (FREE)              



                       INITIAL HEAD FOR LAYER   2
 READING ON UNIT   13 WITH FORMAT: (FREE)              



                       INITIAL HEAD FOR LAYER   3
 READING ON UNIT   13 WITH FORMAT: (FREE)              
 # OC package for  MODFLOW-2005, generated by Flopy.

 OUTPUT CONTROL IS SPECIFIED ONLY AT TIME STEPS FOR WHICH OUTPUT IS DESIRED
 COMPACT CELL-BY-CELL BUDGET FILES WILL BE WRITTEN
 AUXILIARY DATA WILL BE SAVED IN CELL-BY-CELL BUDGET FILES
 HEAD PRINT FORMAT CODE IS   0    DRAWDOWN PRINT FORMAT CODE IS   0
 HEADS WILL BE SAVED ON UNIT   51    DRAWDOWNS WILL BE SAVED ON UNIT    0

 WEL -- WELL PACKAGE, VERSION 7, 5/2/2005 INPUT READ FROM UNIT   20
 # WEL package for  MODFLOW-2005, generated by Flopy.
 No named parameters
 MAXIMUM OF   1966 ACTIVE WELLS AT ONE TIME


     0 Well parameters

 EVT -- EVAPOTRANSPIRATION PACKAGE, VERSION 7, 5/2/2005
         INPUT READ FROM UNIT   22
 # EVT package for  MODFLOW-2005, generated by Flopy.
 No named parameters
 OPTION 3 -- EVAPOTRANSPIRATION FROM HIGHEST ACTIVE NODE IN EACH VERTICAL COLUMN
 CELL-BY-CELL FLOWS WILL BE SAVED ON UNIT   53


     0 Evapotranspiration parameters

 RCH -- RECHARGE PACKAGE, VERSION 7, 5/2/2005 INPUT READ FROM UNIT   19
 # RCH package for  MODFLOW-2005, generated by Flopy.
 No named parameters
 OPTION 3 -- RECHARGE TO HIGHEST ACTIVE NODE IN EACH VERTICAL COLUMN


     0 Recharge parameters

 CHD -- TIME-VARIANT SPECIFIED-HEAD OPTION, VERSION 7, 5/2/2005
 INPUT READ FROM UNIT   24
 # CHD package for  MODFLOW-2005, generated by Flopy.
 No named parameters
 MAXIMUM OF     63 TIME-VARIANT SPECIFIED-HEAD CELLS AT ONE TIME


     0 TIME-VARIANT SPECIFIED-HEAD PARAMETERS
1
                            STRESS PERIOD NO.    1, LENGTH =   1.000000    
                            -----------------------------------------------

                              NUMBER OF TIME STEPS =     1

                               MULTIPLIER FOR DELT =     1.000

                            INITIAL TIME STEP SIZE =   1.000000    

 WELL NO.  LAYER   ROW   COL   STRESS RATE         
 --------------------------------------------------
      1      3      1     63       239.0    
      2      3      1     64       239.0    
      3      3      1     65       835.0    
      4      3      1     66       835.0    
      5      3      1     67       835.0    
      6      3      1     68       835.0    
      7      3      1     69       835.0    
      8      3      1     70       835.0    
      9      3      1     71       835.0    
     10      3      1     72       835.0    
     11      2     85     10      0.4630E+05
     12      3     85     10      0.3700E+05
     13      2     85     11      0.6898E+05
     14      3     85     11      0.4177E+05
     15      2     85     12      0.6898E+05
     16      3     85     12      0.5967E+05
     17      2     85     13      0.7495E+05
     18      3     85     13      0.5967E+05
     19      2     85     14      0.6898E+05
     20      3     85     14      0.6564E+05
     21      2     85     15      0.5406E+05
     22      3     85     15      0.5967E+05
     23      2     85     16      0.5108E+05
     24      3     85     16      0.5967E+05
     25      2     85     17      0.4511E+05
     26      3     85     17      0.5370E+05
     27      2     85     18      0.3914E+05
     28      3     85     18      0.4058E+05
     29      2     85     19      0.3437E+05
     30      3     85     19      0.3879E+05
     31      3     85     20      0.3998E+05
     32      3     85     21      0.3580E+05
     33      3     85     22      0.2387E+05
     34      3     85     23      0.2088E+05
     35      3     85     24      0.1790E+05
     36      3     85     25       5967.    
     37      3     85     26       5967.    
     38      1     18     29     -0.3838E+05
     39      2     18     29     -0.1361E+06
     40      1     20     29     -0.2920E+05
     41      2     20     29     -0.1330E+06
     42      1     20     31     -0.6518E+05
     43      2     20     31     -0.1211E+06
     44      1     22     31     -0.3299E+05
     45      2     22     31     -0.1319E+06
     46      1     22     33      -3379.    
     47      2     22     33      -1741.    
     48      1     23     32     -0.5968E+05
     49      1     23     35     -0.5091E+05
     50      2     23     35     -0.1082E+06
     51      1     25     34     -0.7803E+05
     52      2     25     34     -0.7497E+05
     53      1     30     42     -0.3701E+05
     54      2     30     42     -0.1169E+05
     55      1     31     43     -0.1058E+05
     56      2     31     43     -0.1460E+05
     57      1     31     43     -0.1813E+05
     58      2     31     43     -0.3367E+05
     59      1     31     43     -0.1297E+05
     60      2     31     43     -0.1651E+05
     61      1     32     42     -0.2581E+05
     62      2     32     42     -0.2288E+05
     63      1     31     43     -0.1927E+05
     64      2     31     43     -0.1927E+05
     65      1     31     43     -0.1337E+05
     66      2     31     43     -0.1757E+05
     67      3     31     43      -7256.    
     68      1     32     42     -0.3292E+05
     69      2     32     42     -0.1852E+05
     70      1     32     42     -0.1252E+05
     71      2     32     42      -9442.    
     72      1     32     43     -0.1552E+05
     73      2     32     43      -8354.    
     74      1     32     42     -0.4163E+05
     75      2     32     42     -0.1041E+05
     76      1     33     42     -0.2249E+05
     77      2     33     42     -0.2058E+05
     78      3     33     42      -4786.    
     79      1     32     43     -0.5432E+05
     80      2     32     43     -0.1358E+05
     81      1     32     44     -0.2944E+05
     82      2     32     44     -0.2638E+05
     83      3     32     44      -5521.    
     84      1     32     44     -0.4246E+05
     85      2     32     44      -4200.    
     86      1     33     43     -0.6325E+05
     87      1     33     44     -0.1058E+05
     88      2     33     44     -0.2401E+05
     89      3     33     44      -6104.    
     90      1     33     44     -0.1888E+05
     91      2     33     44     -0.2503E+05
     92      1     33     46     -0.9223E+05
     93      2     33     46     -0.1757E+05
     94      1     34     44      -9060.    
     95      2     34     44     -0.2579E+05
     96      1     34     46     -0.1135E+06
     97      2     34     46      -7246.    
     98      1     35     47     -0.9130E+05
     99      2     35     47     -0.1014E+05
    100      1     35     48     -0.1430E+06
    101      2     35     48      -9130.    
    102      1     36     45     -0.2685E+05
    103      2     36     45      -8951.    
    104      1     36     46      -7089.    
    105      2     36     46      -788.0    
    106      1     36     48     -0.5699E+05
    107      2     36     48      -3638.    
    108      1     36     49     -0.9774E+05
    109      2     36     49     -0.1086E+05
    110      1     37     49     -0.2506E+05
    111      1     38     49     -0.5182E+05
    112      2     38     49      -4506.    
    113      1     39     50     -0.4738E+05
    114      2     39     50      -479.0    
    115      1     39     51     -0.3203E+05
    116      2     39     51      -4368.    
    117      1     40     50     -0.1313E+05
    118      1     41     54     -0.7404E+05
    119      2     41     54      -4726.    
    120      1     41     55     -0.6412E+05
    121      2     41     55      -8743.    
    122      1     42     52      -5609.    
    123      1     52     60     -0.1267E+05
    124      2     52     60      -1253.    
    125      1     55     60     -0.1392E+05
    126      1     56     60     -0.1392E+05
    127      1     57     59     -0.1253E+05
    128      2     57     59      -1392.    
    129      1     57     59     -0.1281E+05
    130      2     57     59      -1114.    
    131      1     57     59     -0.1392E+05
    132      1     58     59     -0.1392E+05
    133      1     59     59     -0.1392E+05
    134      1     59     59     -0.1392E+05
    135      1     59     59     -0.1392E+05
    136      1     45     59     -0.5268E+05
    137      1     46     55     -0.5795E+05
    138      1     46     59     -0.5531E+05
    139      1     46     59     -0.5531E+05
    140      1     46     59     -0.5531E+05
    141      1     48     57     -0.5268E+05
    142      1     49     59     -0.5421E+05
    143      2     49     59      -1107.    
    144      1     49     58     -0.5268E+05
    145      1     85     63     -0.5186E+05
    146      1     85     64     -0.5186E+05
    147      1     86     63     -0.5186E+05
    148      1     86     64     -0.5186E+05
    149      1     87     63     -0.4162E+05
    150      2     87     63     -0.4162E+05
    151      1     88     63     -0.4162E+05
    152      1     88     64     -0.4162E+05
    153      1     89     65     -0.8323E+05
    154      2     89     65     -0.8323E+05
    155      1     90     63     -0.4627E+05
    156      2     90     63     -0.4627E+05
    157      2     91     64     -0.4627E+05
    158      2     91     64     -0.4627E+05
    159      1     93     64     -0.5019E+05
    160      2     93     64     -0.5019E+05
    161      1     94     63     -0.5019E+05
    162      2     94     63     -0.5019E+05
    163      1     95     63     -0.6472E+05
    164      2     95     63     -0.6472E+05
    165      1     95     63     -0.6472E+05
    166      2     95     63     -0.6472E+05
    167      1    101     61     -0.2314E+05
    168      1    101     62     -0.2314E+05
    169      1    102     59     -0.2627E+05
    170      2    102     59     -0.2627E+05
    171      1    102     61     -0.2314E+05
    172      1    102     62     -0.2314E+05
    173      1    103     61     -0.4627E+05
    174      2    103     61     -0.4627E+05
    175      1    104     59     -0.5551E+05
    176      2    104     59     -0.5551E+05
    177      1    106     59     -0.9434E+05
    178      2    106     59     -0.9434E+05
    179      1    107     59     -0.2314E+05
    180      2    107     59     -0.2314E+05
    181      1    107     60     -0.2314E+05
    182      2    107     60     -0.2314E+05
    183      1    110     59     -0.1011E+05
    184      2    110     59     -0.1011E+05
    185      2     21     22     -0.6348E+05
    186      1     29     42     -0.1295E+05
    187      2     29     42     -0.1295E+05
    188      1     29     43     -0.3258E+05
    189      2     29     43     -0.3258E+05
    190      1     40     52     -0.2145E+05
    191      2     40     52     -0.2145E+05
    192      1     43     53     -0.2145E+05
    193      1     43     54     -0.2145E+05
    194      1     43     55     -0.2145E+05
    195      2     43     55     -0.2145E+05
    196      1     44     54     -0.2359E+05
    197      2     44     54     -0.2359E+05
    198      1     44     56     -0.2145E+05
    199      2     44     56     -0.2145E+05
    200      1     45     62     -0.2375E+05
    201      2     45     62      -1963.    
    202      1     46     65     -0.1193E+05
    203      2     46     65     -0.1193E+05
    204      1     47     67     -0.1318E+05
    205      1     47     68     -0.1318E+05
    206      1     48     67     -0.1318E+05
    207      1     48     68      -5176.    
    208      2     48     79     -0.1927E+05
    209      1     49     78      -2420.    
    210      1     51     57     -0.2596E+05
    211      2     51     57     -0.2596E+05
    212      2     51     87      -7301.    
    213      1     52     57     -0.2596E+05
    214      2     52     57     -0.2596E+05
    215      2     52     82     -0.1011E+05
    216      1     61     58     -0.2448E+05
    217      1     61     58     -0.2448E+05
    218      1     62     58     -0.2448E+05
    219      1     62     58     -0.2448E+05
    220      1     63     58     -0.2476E+05
    221      2     63     58     -0.2476E+05
    222      1     64     58     -0.2476E+05
    223      2     64     58     -0.2476E+05
    224      1     65     58     -0.2043E+05
    225      2     65     58     -0.2043E+05
    226      2     65     87      -2117.    
    227      2     65     88      -2117.    
    228      1     66     58     -0.2043E+05
    229      2     66     58     -0.2043E+05
    230      2     66     87      -2117.    
    231      2     66     88      -2117.    
    232      1     67     58     -0.2894E+05
    233      2     67     58     -0.2894E+05
    234      1     68     58     -0.2894E+05
    235      2     68     58     -0.2894E+05
    236      2     69     58     -0.1192E+05
    237      3     69     58     -0.1192E+05
    238      2     70     58     -0.1192E+05
    239      3     70     58     -0.1192E+05
    240      1     71     58     -0.1041E+05
    241      2     71     58     -0.1041E+05
    242      2     72     58     -0.1041E+05
    243      3     72     58     -0.1041E+05
    244      1     73     58     -0.1043E+05
    245      2     73     58     -0.1043E+05
    246      1     75     62     -0.2268E+05
    247      2     75     62     -0.2268E+05
    248      1     76     62     -0.2268E+05
    249      2     76     62     -0.2268E+05
    250      1     10     13     -0.3043E+05
    251      2     10     13     -0.3043E+05
    252      1     78     61     -0.1208E+05
    253      1     78     62     -0.1208E+05
    254      1     82     63     -0.2385E+05
    255      2     82     63     -0.2385E+05
    256      1     87     65     -0.1493E+05
    257      1     87     66     -0.1493E+05
    258      1     88     65     -0.1493E+05
    259      1     88     66     -0.1493E+05
    260      3     97     59      -3024.    
    261      2     97     60      -3024.    
    262      1     97     63     -0.1788E+05
    263      1     97     64     -0.1788E+05
    264      2     98     59      -3024.    
    265      2     98     60      -3024.    
    266      1     98     63     -0.1788E+05
    267      1     98     64     -0.1788E+05
    268      1     99     61     -0.1293E+05
    269      2     99     61     -0.1293E+05
    270      1    100     61     -0.1293E+05
    271      2    100     61     -0.1293E+05
    272      1    100     62     -0.1293E+05
    273      2    100     62     -0.1293E+05
    274      1    115     55     -0.1193E+05
    275      1    120     53     -0.1756E+05
    276      2    119     53      -6558.    
    277      1    121     54     -0.4915E+05
    278      2    121     52     -0.1736E+05
    279      1    121     51     -0.1970E+05
    280      1    114     55      -9883.    
    281      1    113     56     -0.3681E+05
    282      1     48     72     -0.6482E+05
    283      2     48     72     -0.6482E+05
    284      2     23     21     -0.3007E+05
    285      1     44     61     -0.1442E+05
    286      2     44     61      -2885.    
    287      1     46     62      -1193.    
    288      2     46     62      -1193.    
    289      1     48     73      -5671.    
    290      2     48     73      -5671.    
    291      1     49     57     -0.1018E+05
    292      2     49     57     -0.1018E+05
    293      3     51     91      -4092.    
    294      1    121     52     -0.1838E+05
    295      2     46     68      -1790.    
    296      2     41     62      -6085.    
    297      2     41     62      -897.0    
    298      1     44     60     -0.1975E+05
    299      2     44     60     -0.1564E+05
    300      1     68     59     -0.1079E+05
    301      2     68     59     -0.1129E+05
    302      3     68     59      -1790.    
    303      1     71     59      -7967.    
    304      2     71     59     -0.1659E+05
    305      1     72     60      -7967.    
    306      2     72     60      -4465.    
    307      1     74     59      -5967.    
    308      2     74     59      -4465.    
    309      1     73     59      -5967.    
    310      2     73     59      -4465.    
    311      1     44     57     -0.2075E+05
    312      2     44     57      -2637.    
    313      1     49     63      -5370.    
    314      1     50     63      -4995.    
    315      2     50     63      -376.0    
    316      1     50     63      -5370.    
    317      1     52     64     -0.2745E+05
    318      1     52     67      -7676.    
    319      2     52     67      -320.0    
    320      1     52     68      -8354.    
    321      1     52     69      -8951.    
    322      1     53     59      -7293.    
    323      2     53     59      -4167.    
    324      3     53     59      -232.0    
    325      1     53     59     -0.1299E+05
    326      2     53     59      -977.0    
    327      1     53     64     -0.2186E+05
    328      2     53     64      -221.0    
    329      1     53     65     -0.1925E+05
    330      2     53     65      -6764.    
    331      1     53     65     -0.1795E+05
    332      2     53     65      -8065.    
    333      1     53     66     -0.2368E+05
    334      2     53     66      -2342.    
    335      1     53     67     -0.3478E+05
    336      2     53     67      -2220.    
    337      1     53     70      -4893.    
    338      2     53     82      -2387.    
    339      1     54     64     -0.1788E+05
    340      2     54     64      -4195.    
    341      1     55     67     -0.1228E+05
    342      2     55     67      -251.0    
    343      1     55     68     -0.1253E+05
    344      1     57     63     -0.1292E+05
    345      2     57     63      -680.0    
    346      1     59     60     -0.2697E+05
    347      2     59     60      -5137.    
    348      1     59     60     -0.2311E+05
    349      2     59     60      -8668.    
    350      3     59     60      -321.0    
    351      1     59     77     -0.1189E+05
    352      2     59     77      -2435.    
    353      1     60     61     -0.1700E+05
    354      2     60     61      -5078.    
    355      1     61     61      -2636.    
    356      2     61     61      -1907.    
    357      3     61     61      -1066.    
    358      1     62     59     -0.4255E+05
    359      2     62     59     -0.1271E+05
    360      1     62     59     -0.2486E+05
    361      2     62     59     -0.1216E+05
    362      3     62     59     -0.1768E+05
    363      1     62     59     -0.4531E+05
    364      2     62     59      -9946.    
    365      1     62     59     -0.4752E+05
    366      2     62     59      -7736.    
    367      1     62     59     -0.3978E+05
    368      2     62     59     -0.1547E+05
    369      1     63     59     -0.1912E+05
    370      2     63     59      -2363.    
    371      1     63     59     -0.1930E+05
    372      2     63     59      -3141.    
    373      1     64     59     -0.1050E+05
    374      1     66     59     -0.1193E+05
    375      1     66     59      -2756.    
    376      2     66     59      -1295.    
    377      2     66     59      -125.0    
    378      1     53     63     -0.1177E+05
    379      2     53     63      -4136.    
    380      1     53     63     -0.1209E+05
    381      2     53     63      -3818.    
    382      1     60     62      -6086.    
    383      2     60     62      -4416.    
    384      3     60     62      -1432.    
    385      1     67     58     -0.1177E+05
    386      2     67     58      -3818.    
    387      3     67     58      -318.0    
    388      1     55     73      -1944.    
    389      1     49     71      -1790.    
    390      2     49     71      -1790.    
    391      1     50     72      -1790.    
    392      2     50     72      -1790.    
    393      1     52     59      -716.0    
    394      2     52     59      -716.0    
    395      1     49     60      -6985.    
    396      2     49     60      -6985.    
    397      1     81     61     -0.1192E+05
    398      1     81     62     -0.1192E+05
    399      1     82     61     -0.1192E+05
    400      1     82     62     -0.1192E+05
    401      1     56     73      -1944.    
    402      1     56     74      -1944.    
    403      1     52     73      -2981.    
    404      1     52     74      -2981.    
    405      1     51     73      -2981.    
    406      1     51     74      -2981.    
    407      1     46     64     -0.1289E+05
    408      2     46     64      -8590.    

    408 WELLS



                         ET SURFACE
 READING ON UNIT   22 WITH FORMAT: (FREE)              



            EVAPOTRANSPIRATION RATE
 READING ON UNIT   22 WITH FORMAT: (FREE)              



                   EXTINCTION DEPTH
 READING ON UNIT   22 WITH FORMAT: (FREE)              



                           RECHARGE
 READING ON UNIT   19 WITH FORMAT: (FREE)              

 CHD NO.   LAYER   ROW   COL    START HEAD        END HEAD         
 ------------------------------------------------------------------
      1      1      2     11       1650.           1650.    
      2      2      2     11       1650.           1650.    
      3      3      2     11       1651.           1651.    
      4      1      3     11       1648.           1648.    
      5      2      3     11       1648.           1648.    
      6      3      3     11       1648.           1648.    
      7      1      4     11       1647.           1647.    
      8      2      4     11       1647.           1647.    
      9      3      4     11       1647.           1647.    
     10      1      5     11       1647.           1647.    
     11      2      5     11       1647.           1647.    
     12      3      5     11       1647.           1647.    
     13      1      6     11       1649.           1649.    
     14      2      6     11       1649.           1649.    
     15      3      6     11       1649.           1649.    
     16      1      7     11       1654.           1654.    
     17      2      7     11       1654.           1654.    
     18      3      7     11       1654.           1654.    
     19      1      8     11       1658.           1658.    
     20      2      8     11       1658.           1658.    
     21      3      8     11       1658.           1658.    
     22      1      9     11       1663.           1663.    
     23      2      9     11       1663.           1663.    
     24      3      9     11       1663.           1663.    
     25      1     10     11       1668.           1668.    
     26      2     10     11       1668.           1668.    
     27      3     10     11       1668.           1668.    
     28      1     11     11       1675.           1675.    
     29      2     11     11       1675.           1675.    
     30      3     11     11       1675.           1675.    
     31      2    122     47       3023.           3023.    
     32      3    122     47       3023.           3023.    
     33      2    122     48       3020.           3020.    
     34      3    122     48       3020.           3020.    
     35      1    122     49       3018.           3018.    
     36      2    122     49       3018.           3018.    
     37      3    122     49       3018.           3018.    
     38      1    122     50       3016.           3016.    
     39      2    122     50       3016.           3016.    
     40      3    122     50       3016.           3016.    
     41      1    122     51       3012.           3012.    
     42      2    122     51       3012.           3012.    
     43      3    122     51       3012.           3012.    
     44      1    122     52       3010.           3010.    
     45      2    122     52       3010.           3010.    
     46      3    122     52       3010.           3010.    
     47      1    122     53       3006.           3006.    
     48      2    122     53       3006.           3006.    
     49      3    122     53       3006.           3006.    
     50      1    122     54       3006.           3006.    
     51      2    122     54       3006.           3006.    
     52      3    122     54       3006.           3006.    
     53      1    122     55       3005.           3005.    
     54      2    122     55       3005.           3005.    
     55      3    122     55       3005.           3005.    
     56      1    122     56       3005.           3005.    
     57      2    122     56       3005.           3005.    
     58      3    122     56       3005.           3005.    
     59      2    122     57       3005.           3005.    
     60      3    122     57       3005.           3005.    
     61      3    122     58       3005.           3005.    
     62      3    122     59       3008.           3008.    
     63      3    122     60       3010.           3010.    


     63 TIME-VARIANT SPECIFIED-HEAD CELLS
 
 SOLVING FOR HEAD 

 OUTPUT CONTROL FOR STRESS PERIOD    1   TIME STEP    1
    SAVE BUDGET
    SAVE HEAD FOR ALL LAYERS
 UBDSV3 SAVING "              ET" ON UNIT  53 AT TIME STEP  1, STRESS PERIOD   1

 HEAD WILL BE SAVED ON UNIT   51 AT END OF TIME STEP    1, STRESS PERIOD    1
1
  VOLUMETRIC BUDGET FOR ENTIRE MODEL AT END OF TIME STEP    1, STRESS PERIOD   1
  ------------------------------------------------------------------------------

     CUMULATIVE VOLUMES      L**3       RATES FOR THIS TIME STEP      L**3/T
     ------------------                 ------------------------

           IN:                                      IN:
           ---                                      ---
               WELLS =     1225642.0000                 WELLS =     1225642.0000
                  ET =           0.0000                    ET =           0.0000
            RECHARGE =    10230700.0000              RECHARGE =    10230700.0000

            TOTAL IN =    11456342.0000              TOTAL IN =    11456342.0000

          OUT:                                     OUT:
          ----                                     ----
               WELLS =     8386982.0000                 WELLS =     8386982.0000
                  ET =     1582382.0000                    ET =     1582382.0000
            RECHARGE =           0.0000              RECHARGE =           0.0000

           TOTAL OUT =     9969364.0000             TOTAL OUT =     9969364.0000

            IN - OUT =     1486978.0000              IN - OUT =     1486978.0000

 PERCENT DISCREPANCY =          13.88     PERCENT DISCREPANCY =          13.88






         TIME SUMMARY AT END OF TIME STEP    1 IN STRESS PERIOD    1
                    SECONDS     MINUTES      HOURS       DAYS        YEARS
                    -----------------------------------------------------------
   TIME STEP LENGTH  86400.      1440.0      24.000      1.0000     2.73785E-03
 STRESS PERIOD TIME  86400.      1440.0      24.000      1.0000     2.73785E-03
         TOTAL TIME  86400.      1440.0      24.000      1.0000     2.73785E-03
1

 Run end date and time (yyyy/mm/dd hh:mm:ss): 2022/01/11 14:33:21
 Elapsed run time:  0.079 Seconds

