                                  MODFLOW-2005     
      U.S. GEOLOGICAL SURVEY MODULAR FINITE-DIFFERENCE GROUND-WATER FLOW MODEL
                            VERSION 1.12.00 2/3/2017

 LIST FILE: ocotillo.list
                         UNIT    2

 OPENING ocotillo.dis
 FILE TYPE:DIS   UNIT   11   STATUS:OLD    
 FORMAT:FORMATTED              ACCESS:SEQUENTIAL          

 OPENING ocotillo.bas
 FILE TYPE:BAS6   UNIT   13   STATUS:OLD    
 FORMAT:FORMATTED              ACCESS:SEQUENTIAL          

 OPENING ocotillo.lpf
 FILE TYPE:LPF   UNIT   15   STATUS:OLD    
 FORMAT:FORMATTED              ACCESS:SEQUENTIAL          

 OPENING ocotillo.oc
 FILE TYPE:OC   UNIT   14   STATUS:OLD    
 FORMAT:FORMATTED              ACCESS:SEQUENTIAL          

 OPENING ocotillo.pcg
 FILE TYPE:PCG   UNIT   27   STATUS:OLD    
 FORMAT:FORMATTED              ACCESS:SEQUENTIAL          

 OPENING ocotillo.rch
 FILE TYPE:RCH   UNIT   19   STATUS:OLD    
 FORMAT:FORMATTED              ACCESS:SEQUENTIAL          

 OPENING ocotillo.cbc
 FILE TYPE:DATA(BINARY)   UNIT   53   STATUS:REPLACE
 FORMAT:BINARY                 ACCESS:SEQUENTIAL          

 OPENING ocotillo.hds
 FILE TYPE:DATA(BINARY)   UNIT   51   STATUS:REPLACE
 FORMAT:BINARY                 ACCESS:SEQUENTIAL          

 BAS -- BASIC PACKAGE, VERSION 7, 5/2/2005 INPUT READ FROM UNIT   13
 
 MODFLOW was compiled using mixed precision
 Precision of REAL variables:           6
 Precision of DOUBLE PRECISION variables:          15

 DISCRETIZATION INPUT DATA READ FROM UNIT   11
 # DIS package for  MODFLOW-2005, generated by Flopy.
    1 LAYERS       250 ROWS       145 COLUMNS
    1 STRESS PERIOD(S) IN SIMULATION
 MODEL TIME UNIT IS DAYS
 MODEL LENGTH UNIT IS METERS
  Confining bed flag for each layer:
   0

                     DELR =   1000.00    

                     DELC =   1000.00    



           TOP ELEVATION OF LAYER 1
 READING ON UNIT   11 WITH FORMAT: (145E15.6)          



             MODEL LAYER BOTTOM EL. FOR LAYER   1
 READING ON UNIT   11 WITH FORMAT: (145E15.6)          


 STRESS PERIOD     LENGTH       TIME STEPS     MULTIPLIER FOR DELT    SS FLAG
 ----------------------------------------------------------------------------
        1         1.000000          1                    1.000         SS

 STEADY-STATE SIMULATION



 
 # BAS6 package for  MODFLOW-2005, generated by Flopy.                           
 THE FREE FORMAT OPTION HAS BEEN SELECTED



                     BOUNDARY ARRAY FOR LAYER   1
 READING ON UNIT   13 WITH FORMAT: (145I10)            

 AQUIFER HEAD WILL BE SET TO  -999.99     AT ALL NO-FLOW NODES (IBOUND=0).



                       INITIAL HEAD FOR LAYER   1
 READING ON UNIT   13 WITH FORMAT: (145E15.6)          
 # OC package for  MODFLOW-2005, generated by Flopy.

 OUTPUT CONTROL IS SPECIFIED ONLY AT TIME STEPS FOR WHICH OUTPUT IS DESIRED
 COMPACT CELL-BY-CELL BUDGET FILES WILL BE WRITTEN
 AUXILIARY DATA WILL BE SAVED IN CELL-BY-CELL BUDGET FILES
 HEAD PRINT FORMAT CODE IS   0    DRAWDOWN PRINT FORMAT CODE IS   0
 HEADS WILL BE SAVED ON UNIT   51    DRAWDOWNS WILL BE SAVED ON UNIT    0

 LPF -- LAYER-PROPERTY FLOW PACKAGE, VERSION 7, 5/2/2005
         INPUT READ FROM UNIT   15
 # LPF package for  MODFLOW-2005, generated by Flopy.
 CELL-BY-CELL FLOWS WILL BE SAVED ON UNIT   53
 HEAD AT CELLS THAT CONVERT TO DRY= -1.00000E+30
 No named parameters

   LAYER FLAGS:
 LAYER       LAYTYP        LAYAVG         CHANI        LAYVKA        LAYWET
 ---------------------------------------------------------------------------
    1             0             0     0.000E+00             0             0

   INTERPRETATION OF LAYER FLAGS:
                        INTERBLOCK     HORIZONTAL    DATA IN
         LAYER TYPE   TRANSMISSIVITY   ANISOTROPY   ARRAY VKA   WETTABILITY
 LAYER      (LAYTYP)      (LAYAVG)       (CHANI)      (LAYVKA)      (LAYWET)
 ---------------------------------------------------------------------------
    1      CONFINED      HARMONIC      VARIABLE    VERTICAL K  NON-WETTABLE

 WETTING CAPABILITY IS NOT ACTIVE IN ANY LAYER



              HYD. COND. ALONG ROWS FOR LAYER   1
 READING ON UNIT   15 WITH FORMAT: (145E15.6)          

   HORIZ. ANI. (COL./ROW) =   1.00000     FOR LAYER   1



                VERTICAL HYD. COND. FOR LAYER   1
 READING ON UNIT   15 WITH FORMAT: (145E15.6)          

 RCH -- RECHARGE PACKAGE, VERSION 7, 5/2/2005 INPUT READ FROM UNIT   19
 # RCH package for  MODFLOW-2005, generated by Flopy.
 No named parameters
 OPTION 3 -- RECHARGE TO HIGHEST ACTIVE NODE IN EACH VERTICAL COLUMN


     0 Recharge parameters

 PCG -- CONJUGATE-GRADIENT SOLUTION PACKAGE, VERSION 7, 5/2/2005
 # PCG package for  MODFLOW-2005, generated by Flopy.
 MAXIMUM OF     50 CALLS OF SOLUTION ROUTINE
 MAXIMUM OF     30 INTERNAL ITERATIONS PER CALL TO SOLUTION ROUTINE
 MATRIX PRECONDITIONING TYPE :    1



                                    SOLUTION BY THE CONJUGATE-GRADIENT METHOD
                                   -------------------------------------------
                    MAXIMUM NUMBER OF CALLS TO PCG ROUTINE =       50
                        MAXIMUM ITERATIONS PER CALL TO PCG =       30
                               MATRIX PRECONDITIONING TYPE =        1
        RELAXATION FACTOR (ONLY USED WITH PRECOND. TYPE 1) =    0.10000E+01
 PARAMETER OF POLYNOMIAL PRECOND. = 2 (2) OR IS CALCULATED :        0
                         HEAD CHANGE CRITERION FOR CLOSURE =    0.10000E-04
                     RESIDUAL CHANGE CRITERION FOR CLOSURE =    0.10000E-04
            PCG HEAD AND RESIDUAL CHANGE PRINTOUT INTERVAL =      999
     PRINTING FROM SOLVER IS LIMITED(1) OR SUPPRESSED (>1) =        3
                            STEADY-STATE DAMPING PARAMETER =    0.10000E+01
                               TRANSIENT DAMPING PARAMETER =    0.10000E+01
1
                            STRESS PERIOD NO.    1, LENGTH =   1.000000    
                            -----------------------------------------------

                              NUMBER OF TIME STEPS =     1

                               MULTIPLIER FOR DELT =     1.000

                            INITIAL TIME STEP SIZE =   1.000000    



                           RECHARGE
 READING ON UNIT   19 WITH FORMAT: (145E15.6)          
 
 SOLVING FOR HEAD 

 OUTPUT CONTROL FOR STRESS PERIOD    1   TIME STEP    1
    PRINT HEAD FOR ALL LAYERS
    PRINT BUDGET
    SAVE HEAD FOR ALL LAYERS
    SAVE BUDGET
 UBDSV2 SAVING "   CONSTANT HEAD" ON UNIT  53 AT TIME STEP  1, STRESS PERIOD   1
 UBDSV1 SAVING "FLOW RIGHT FACE " ON UNIT  53 AT TIME STEP  1, STRESS PERIOD   1
 UBDSV1 SAVING "FLOW FRONT FACE " ON UNIT  53 AT TIME STEP  1, STRESS PERIOD   1
1
              HEAD IN LAYER   1 AT END OF TIME STEP   1 IN STRESS PERIOD    1
  ---------------------------------------------------------------------------

            1           2           3           4           5           6           7           8           9          10
           11          12          13          14          15          16          17          18          19          20
           21          22          23          24          25          26          27          28          29          30
           31          32          33          34          35          36          37          38          39          40
           41          42          43          44          45          46          47          48          49          50
           51          52          53          54          55          56          57          58          59          60
           61          62          63          64          65          66          67          68          69          70
           71          72          73          74          75          76          77          78          79          80
           81          82          83          84          85          86          87          88          89          90
           91          92          93          94          95          96          97          98          99         100
          101         102         103         104         105         106         107         108         109         110
          111         112         113         114         115         116         117         118         119         120
          121         122         123         124         125         126         127         128         129         130
          131         132         133         134         135         136         137         138         139         140
          141         142         143         144         145
 ........................................................................................................................
   1  -1000.0     -1000.0     -1000.0     -1000.0     -1000.0     -1000.0     -1000.0     -1000.0     -1000.0     -1000.0    
      -1000.0     -1000.0     -1000.0     -1000.0     -1000.0     -1000.0     -1000.0     -1000.0     -1000.0     -1000.0    
      -1000.0     -1000.0     -1000.0     -1000.0     -1000.0     -1000.0     -1000.0     -1000.0     -1000.0     -1000.0    
      -1000.0     -1000.0     -1000.0     -1000.0     -1000.0     -1000.0     -1000.0     -1000.0     -1000.0     -1000.0    
      -1000.0     -1000.0     -1000.0     -1000.0     -1000.0     -1000.0     -1000.0     -1000.0     -1000.0     -1000.0    
      -1000.0     -1000.0     -1000.0     -1000.0     -1000.0     -1000.0     -1000.0     -1000.0     -1000.0     -1000.0    
      -1000.0     -1000.0     -1000.0     -1000.0     -1000.0     -1000.0     -1000.0     -1000.0     -1000.0     -1000.0    
      -1000.0     -1000.0     -1000.0     -1000.0     -1000.0     -1000.0     -1000.0     -1000.0     -1000.0     -1000.0    
      -1000.0     -1000.0     -1000.0     -1000.0     -1000.0     -1000.0     -1000.0     -1000.0     -1000.0     -1000.0    
      -1000.0     -1000.0     -1000.0     -1000.0     -1000.0     -1000.0     -1000.0     -1000.0     -1000.0     -1000.0    
      -1000.0     -1000.0     -1000.0     -1000.0     -1000.0     -1000.0     -1000.0     -1000.0     -1000.0     -1000.0    
      -1000.0     -1000.0     -1000.0     -1000.0     -1000.0     -1000.0     -1000.0     -1000.0     -1000.0     -1000.0    
      -1000.0     -1000.0     -1000.0     -1000.0     -1000.0     -1000.0     -1000.0     -1000.0     -1000.0     -1000.0    
      -1000.0     -1000.0     -1000.0     -1000.0     -1000.0     -1000.0     -1000.0     -1000.0     -1000.0     -1000.0    
      -1000.0     -1000.0     -1000.0     -1000.0     -1000.0    
   2  -1000.0     -1000.0     -1000.0     -1000.0     -1000.0     -1000.0     -1000.0     -1000.0     -1000.0     -1000.0    
      -1000.0     -1000.0     -1000.0     -1000.0     -1000.0     -1000.0     -1000.0     -1000.0     -1000.0     -1000.0    
      -1000.0     -1000.0     -1000.0     -1000.0     -1000.0     -1000.0     -1000.0     -1000.0     -1000.0     -1000.0    
      -1000.0     -1000.0     -1000.0     -1000.0     -1000.0     -1000.0     -1000.0     -1000.0     -1000.0     -1000.0    
      -1000.0     -1000.0     -1000.0     -1000.0     -1000.0     -1000.0     -1000.0     -1000.0     -1000.0     -1000.0    
      -1000.0     -1000.0     -1000.0     -1000.0     -1000.0     -1000.0     -1000.0     -1000.0     -1000.0     -1000.0    
      -1000.0     -1000.0     -1000.0     -1000.0     -1000.0     -1000.0     -1000.0     -1000.0     -1000.0     -1000.0    
      -1000.0     -1000.0     -1000.0     -1000.0     -1000.0     -1000.0     -1000.0     -1000.0     -1000.0     -1000.0    
      -1000.0     -1000.0     -1000.0     -1000.0     -1000.0     -1000.0     -1000.0     -1000.0     -1000.0     -1000.0    
      -1000.0     -1000.0     -1000.0     -1000.0     -1000.0     -1000.0     -1000.0     -1000.0     -1000.0     -1000.0    
      -1000.0     -1000.0     -1000.0     -1000.0     -1000.0     -1000.0     -1000.0     -1000.0     -1000.0     -1000.0    
      -1000.0     -1000.0     -1000.0     -1000.0     -1000.0     -1000.0     -1000.0     -1000.0     -1000.0     -1000.0    
      -1000.0     -1000.0     -1000.0     -1000.0     -1000.0     -1000.0     -1000.0     -1000.0     -1000.0     -1000.0    
      -1000.0     -1000.0     -1000.0     -1000.0     -1000.0     -1000.0     -1000.0     -1000.0     -1000.0     -1000.0    
      -1000.0     -1000.0     -1000.0     -1000.0     -1000.0    
   3  -1000.0     -1000.0     -1000.0     -1000.0     -1000.0     -1000.0     -1000.0     -1000.0     -1000.0     -1000.0    
      -1000.0     -1000.0     -1000.0     -1000.0     -1000.0     -1000.0     -1000.0     -1000.0     -1000.0     -1000.0    
      -1000.0     -1000.0     -1000.0     -1000.0     -1000.0     -1000.0     -1000.0     -1000.0     -1000.0     -1000.0    
      -1000.0     -1000.0     -1000.0     -1000.0     -1000.0     -1000.0     -1000.0     -1000.0     -1000.0     -1000.0    
      -1000.0     -1000.0     -1000.0     -1000.0     -1000.0     -1000.0     -1000.0     -1000.0     -1000.0     -1000.0    
      -1000.0     -1000.0     -1000.0     -1000.0     -1000.0     -1000.0     -1000.0     -1000.0     -1000.0     -1000.0    
      -1000.0     -1000.0     -1000.0     -1000.0     -1000.0     -1000.0     -1000.0     -1000.0     -1000.0     -1000.0    
      -1000.0     -1000.0     -1000.0     -1000.0     -1000.0     -1000.0     -1000.0     -1000.0     -1000.0     -1000.0    
      -1000.0     -1000.0     -1000.0     -1000.0     -1000.0     -1000.0     -1000.0     -1000.0     -1000.0     -1000.0    
      -1000.0     -1000.0     -1000.0     -1000.0     -1000.0     -1000.0     -1000.0     -1000.0     -1000.0     -1000.0    
      -1000.0     -1000.0     -1000.0     -1000.0     -1000.0     -1000.0     -1000.0     -1000.0     -1000.0     -1000.0    
      -1000.0     -1000.0     -1000.0     -1000.0     -1000.0     -1000.0     -1000.0     -1000.0     -1000.0     -1000.0    
      -1000.0     -1000.0     -1000.0     -1000.0     -1000.0     -1000.0     -1000.0     -1000.0     -1000.0     -1000.0    
      -1000.0     -1000.0     -1000.0     -1000.0     -1000.0     -1000.0     -1000.0     -1000.0     -1000.0     -1000.0    
      -1000.0     -1000.0     -1000.0     -1000.0     -1000.0    
   4  -1000.0     -1000.0     -1000.0     -1000.0     -1000.0     -1000.0     -1000.0     -1000.0     -1000.0     -1000.0    
      -1000.0     -1000.0     -1000.0     -1000.0     -1000.0     -1000.0     -1000.0     -1000.0     -1000.0     -1000.0    
      -1000.0     -1000.0     -1000.0     -1000.0     -1000.0     -1000.0     -1000.0     -1000.0     -1000.0     -1000.0    
      -1000.0     -1000.0     -1000.0     -1000.0     -1000.0     -1000.0     -1000.0     -1000.0     -1000.0     -1000.0    
      -1000.0     -1000.0     -1000.0     -1000.0     -1000.0     -1000.0     -1000.0     -1000.0     -1000.0     -1000.0    
      -1000.0     -1000.0     -1000.0     -1000.0     -1000.0     -1000.0     -1000.0     -1000.0     -1000.0     -1000.0    
      -1000.0     -1000.0     -1000.0     -1000.0     -1000.0     -1000.0     -1000.0     -1000.0     -1000.0     -1000.0    
      -1000.0     -1000.0     -1000.0     -1000.0     -1000.0     -1000.0     -1000.0     -1000.0     -1000.0     -1000.0    
      -1000.0     -1000.0     -1000.0     -1000.0     -1000.0     -1000.0     -1000.0     -1000.0     -1000.0     -1000.0    
      -1000.0     -1000.0     -1000.0     -1000.0     -1000.0     -1000.0     -1000.0     -1000.0     -1000.0     -1000.0    
      -1000.0     -1000.0     -1000.0     -1000.0     -1000.0     -1000.0     -1000.0     -1000.0     -1000.0     -1000.0    
      -1000.0     -1000.0     -1000.0     -1000.0     -1000.0     -1000.0     -1000.0     -1000.0     -1000.0     -1000.0    
      -1000.0     -1000.0     -1000.0     -1000.0     -1000.0     -1000.0     -1000.0     -1000.0     -1000.0     -1000.0    
      -1000.0     -1000.0     -1000.0     -1000.0     -1000.0     -1000.0     -1000.0     -1000.0     -1000.0     -1000.0    
      -1000.0     -1000.0     -1000.0     -1000.0     -1000.0    
   5  -1000.0     -1000.0     -1000.0     -1000.0     -1000.0     -1000.0     -1000.0     -1000.0     -1000.0     -1000.0    
      -1000.0     -1000.0     -1000.0     -1000.0     -1000.0     -1000.0     -1000.0     -1000.0     -1000.0     -1000.0    
      -1000.0     -1000.0     -1000.0     -1000.0     -1000.0     -1000.0     -1000.0     -1000.0     -1000.0     -1000.0    
      -1000.0     -1000.0     -1000.0     -1000.0     -1000.0     -1000.0     -1000.0     -1000.0     -1000.0     -1000.0    
      -1000.0     -1000.0     -1000.0     -1000.0     -1000.0     -1000.0     -1000.0     -1000.0     -1000.0     -1000.0    
      -1000.0     -1000.0     -1000.0     -1000.0     -1000.0     -1000.0     -1000.0     -1000.0     -1000.0     -1000.0    
      -1000.0     -1000.0     -1000.0     -1000.0     -1000.0     -1000.0     -1000.0     -1000.0     -1000.0     -1000.0    
      -1000.0     -1000.0     -1000.0     -1000.0     -1000.0     -1000.0     -1000.0     -1000.0     -1000.0     -1000.0    
      -1000.0     -1000.0     -1000.0     -1000.0     -1000.0     -1000.0     -1000.0     -1000.0     -1000.0     -1000.0    
      -1000.0     -1000.0     -1000.0     -1000.0     -1000.0     -1000.0     -1000.0     -1000.0     -1000.0     -1000.0    
      -1000.0     -1000.0     -1000.0     -1000.0     -1000.0     -1000.0     -1000.0     -1000.0     -1000.0     -1000.0    
      -1000.0     -1000.0     -1000.0     -1000.0     -1000.0     -1000.0     -1000.0     -1000.0     -1000.0     -1000.0    
      -1000.0     -1000.0     -1000.0     -1000.0     -1000.0     -1000.0     -1000.0     -1000.0     -1000.0     -1000.0    
      -1000.0     -1000.0     -1000.0     -1000.0     -1000.0     -1000.0     -1000.0     -1000.0     -1000.0     -1000.0    
      -1000.0     -1000.0     -1000.0     -1000.0     -1000.0    
   6  -1000.0     -1000.0     -1000.0     -1000.0     -1000.0     -1000.0     -1000.0     -1000.0     -1000.0     -1000.0    
      -1000.0     -1000.0     -1000.0     -1000.0     -1000.0     -1000.0     -1000.0     -1000.0     -1000.0     -1000.0    
      -1000.0     -1000.0     -1000.0     -1000.0     -1000.0     -1000.0     -1000.0     -1000.0     -1000.0     -1000.0    
      -1000.0     -1000.0     -1000.0     -1000.0     -1000.0     -1000.0     -1000.0     -1000.0     -1000.0     -1000.0    
      -1000.0     -1000.0     -1000.0     -1000.0     -1000.0     -1000.0     -1000.0     -1000.0     -1000.0     -1000.0    
      -1000.0     -1000.0     -1000.0     -1000.0     -1000.0     -1000.0     -1000.0     -1000.0     -1000.0     -1000.0    
      -1000.0     -1000.0     -1000.0     -1000.0     -1000.0     -1000.0     -1000.0     -1000.0     -1000.0     -1000.0    
      -1000.0     -1000.0     -1000.0     -1000.0     -1000.0     -1000.0     -1000.0     -1000.0     -1000.0     -1000.0    
      -1000.0     -1000.0     -1000.0     -1000.0     -1000.0     -1000.0     -1000.0     -1000.0     -1000.0     -1000.0    
      -1000.0     -1000.0     -1000.0     -1000.0     -1000.0     -1000.0     -1000.0     -1000.0     -1000.0     -1000.0    
      -1000.0     -1000.0     -1000.0     -1000.0     -1000.0     -1000.0     -1000.0     -1000.0     -1000.0     -1000.0    
      -1000.0     -1000.0     -1000.0     -1000.0     -1000.0     -1000.0     -1000.0     -1000.0     -1000.0     -1000.0    
      -1000.0     -1000.0     -1000.0     -1000.0     -1000.0     -1000.0     -1000.0     -1000.0     -1000.0     -1000.0    
      -1000.0     -1000.0     -1000.0     -1000.0     -1000.0     -1000.0     -1000.0     -1000.0     -1000.0     -1000.0    
      -1000.0     -1000.0     -1000.0     -1000.0     -1000.0    
   7  -1000.0     -1000.0     -1000.0     -1000.0     -1000.0     -1000.0     -1000.0     -1000.0     -1000.0     -1000.0    
      -1000.0     -1000.0     -1000.0     -1000.0     -1000.0     -1000.0     -1000.0     -1000.0     -1000.0     -1000.0    
      -1000.0     -1000.0     -1000.0     -1000.0     -1000.0     -1000.0     -1000.0     -1000.0     -1000.0     -1000.0    
      -1000.0     -1000.0     -1000.0     -1000.0     -1000.0     -1000.0     -1000.0     -1000.0     -1000.0     -1000.0    
      -1000.0     -1000.0     -1000.0     -1000.0     -1000.0     -1000.0     -1000.0     -1000.0     -1000.0     -1000.0    
      -1000.0     -1000.0     -1000.0     -1000.0     -1000.0     -1000.0     -1000.0     -1000.0     -1000.0     -1000.0    
      -1000.0     -1000.0     -1000.0     -1000.0     -1000.0     -1000.0     -1000.0     -1000.0     -1000.0     -1000.0    
      -1000.0     -1000.0     -1000.0     -1000.0     -1000.0     -1000.0     -1000.0     -1000.0     -1000.0     -1000.0    
      -1000.0     -1000.0     -1000.0     -1000.0     -1000.0     -1000.0     -1000.0     -1000.0     -1000.0     -1000.0    
      -1000.0     -1000.0     -1000.0     -1000.0     -1000.0     -1000.0     -1000.0     -1000.0     -1000.0     -1000.0    
      -1000.0     -1000.0     -1000.0     -1000.0     -1000.0     -1000.0     -1000.0     -1000.0     -1000.0     -1000.0    
      -1000.0     -1000.0     -1000.0     -1000.0     -1000.0     -1000.0     -1000.0     -1000.0     -1000.0     -1000.0    
      -1000.0     -1000.0     -1000.0     -1000.0     -1000.0     -1000.0     -1000.0     -1000.0     -1000.0     -1000.0    
      -1000.0     -1000.0     -1000.0     -1000.0     -1000.0     -1000.0     -1000.0     -1000.0     -1000.0     -1000.0    
      -1000.0     -1000.0     -1000.0     -1000.0     -1000.0    
   8  -1000.0     -1000.0     -1000.0     -1000.0     -1000.0     -1000.0     -1000.0     -1000.0     -1000.0     -1000.0    
      -1000.0     -1000.0     -1000.0     -1000.0     -1000.0     -1000.0     -1000.0     -1000.0     -1000.0     -1000.0    
      -1000.0     -1000.0     -1000.0     -1000.0     -1000.0     -1000.0     -1000.0     -1000.0     -1000.0     -1000.0    
      -1000.0     -1000.0     -1000.0     -1000.0     -1000.0     -1000.0     -1000.0     -1000.0     -1000.0     -1000.0    
      -1000.0     -1000.0     -1000.0     -1000.0     -1000.0     -1000.0     -1000.0     -1000.0     -1000.0     -1000.0    
      -1000.0     -1000.0     -1000.0     -1000.0     -1000.0     -1000.0     -1000.0     -1000.0     -1000.0     -1000.0    
      -1000.0     -1000.0     -1000.0     -1000.0     -1000.0     -1000.0     -1000.0     -1000.0     -1000.0     -1000.0    
      -1000.0     -1000.0     -1000.0     -1000.0     -1000.0     -1000.0     -1000.0     -1000.0     -1000.0     -1000.0    
      -1000.0     -1000.0     -1000.0     -1000.0     -1000.0     -1000.0     -1000.0     -1000.0     -1000.0     -1000.0    
      -1000.0     -1000.0     -1000.0     -1000.0     -1000.0     -1000.0     -1000.0     -1000.0     -1000.0     -1000.0    
      -1000.0     -1000.0     -1000.0     -1000.0     -1000.0     -1000.0     -1000.0     -1000.0     -1000.0     -1000.0    
      -1000.0     -1000.0     -1000.0     -1000.0     -1000.0     -1000.0     -1000.0     -1000.0     -1000.0     -1000.0    
      -1000.0     -1000.0     -1000.0     -1000.0     -1000.0     -1000.0     -1000.0     -1000.0     -1000.0     -1000.0    
      -1000.0     -1000.0     -1000.0     -1000.0     -1000.0     -1000.0     -1000.0     -1000.0     -1000.0     -1000.0    
      -1000.0     -1000.0     -1000.0     -1000.0     -1000.0    
   9  -1000.0     -1000.0     -1000.0     -1000.0     -1000.0     -1000.0     -1000.0     -1000.0     -1000.0     -1000.0    
      -1000.0     -1000.0     -1000.0     -1000.0     -1000.0     -1000.0     -1000.0     -1000.0     -1000.0     -1000.0    
      -1000.0     -1000.0     -1000.0     -1000.0     -1000.0     -1000.0     -1000.0     -1000.0     -1000.0     -1000.0    
      -1000.0     -1000.0     -1000.0     -1000.0     -1000.0     -1000.0     -1000.0     -1000.0     -1000.0     -1000.0    
      -1000.0     -1000.0     -1000.0     -1000.0     -1000.0     -1000.0     -1000.0     -1000.0     -1000.0     -1000.0    
      -1000.0     -1000.0     -1000.0     -1000.0     -1000.0     -1000.0     -1000.0     -1000.0     -1000.0     -1000.0    
      -1000.0     -1000.0     -1000.0     -1000.0     -1000.0     -1000.0     -1000.0     -1000.0     -1000.0     -1000.0    
      -1000.0     -1000.0     -1000.0     -1000.0     -1000.0     -1000.0     -1000.0     -1000.0     -1000.0     -1000.0    
      -1000.0     -1000.0     -1000.0     -1000.0     -1000.0     -1000.0     -1000.0     -1000.0     -1000.0     -1000.0    
      -1000.0     -1000.0     -1000.0     -1000.0     -1000.0     -1000.0     -1000.0     -1000.0     -1000.0     -1000.0    
      -1000.0     -1000.0     -1000.0     -1000.0     -1000.0     -1000.0     -1000.0     -1000.0     -1000.0     -1000.0    
      -1000.0     -1000.0     -1000.0     -1000.0     -1000.0     -1000.0     -1000.0     -1000.0     -1000.0     -1000.0    
      -1000.0     -1000.0     -1000.0     -1000.0     -1000.0     -1000.0     -1000.0     -1000.0     -1000.0     -1000.0    
      -1000.0     -1000.0     -1000.0     -1000.0     -1000.0     -1000.0     -1000.0     -1000.0     -1000.0     -1000.0    
      -1000.0     -1000.0     -1000.0     -1000.0     -1000.0    
  10  -1000.0     -1000.0     -1000.0     -1000.0     -1000.0     -1000.0     -1000.0     -1000.0     -1000.0     -1000.0    
      -1000.0     -1000.0     -1000.0     -1000.0     -1000.0     -1000.0     -1000.0     -1000.0     -1000.0     -1000.0    
      -1000.0     -1000.0     -1000.0     -1000.0     -1000.0     -1000.0     -1000.0     -1000.0     -1000.0     -1000.0    
      -1000.0     -1000.0     -1000.0     -1000.0     -1000.0     -1000.0     -1000.0     -1000.0     -1000.0     -1000.0    
      -1000.0     -1000.0     -1000.0     -1000.0     -1000.0     -1000.0     -1000.0     -1000.0     -1000.0     -1000.0    
      -1000.0     -1000.0     -1000.0     -1000.0     -1000.0     -1000.0     -1000.0     -1000.0     -1000.0     -1000.0    
      -1000.0     -1000.0     -1000.0     -1000.0     -1000.0     -1000.0     -1000.0     -1000.0     -1000.0     -1000.0    
      -1000.0     -1000.0     -1000.0     -1000.0     -1000.0     -1000.0     -1000.0     -1000.0     -1000.0     -1000.0    
      -1000.0     -1000.0     -1000.0     -1000.0     -1000.0     -1000.0     -1000.0     -1000.0     -1000.0     -1000.0    
      -1000.0     -1000.0     -1000.0     -1000.0     -1000.0     -1000.0     -1000.0     -1000.0     -1000.0     -1000.0    
      -1000.0     -1000.0     -1000.0     -1000.0     -1000.0     -1000.0     -1000.0     -1000.0     -1000.0     -1000.0    
      -1000.0     -1000.0     -1000.0     -1000.0     -1000.0     -1000.0     -1000.0     -1000.0     -1000.0     -1000.0    
      -1000.0     -1000.0     -1000.0     -1000.0     -1000.0     -1000.0     -1000.0     -1000.0     -1000.0     -1000.0    
      -1000.0     -1000.0     -1000.0     -1000.0     -1000.0     -1000.0     -1000.0     -1000.0     -1000.0     -1000.0    
      -1000.0     -1000.0     -1000.0     -1000.0     -1000.0    
  11  -1000.0     -1000.0     -1000.0     -1000.0     -1000.0     -1000.0     -1000.0     -1000.0     -1000.0     -1000.0    
      -1000.0     -1000.0     -1000.0     -1000.0     -1000.0     -1000.0     -1000.0     -1000.0     -1000.0     -1000.0    
      -1000.0     -1000.0     -1000.0     -1000.0     -1000.0     -1000.0     -1000.0     -1000.0     -1000.0     -1000.0    
      -1000.0     -1000.0     -1000.0     -1000.0     -1000.0     -1000.0     -1000.0     -1000.0     -1000.0     -1000.0    
      -1000.0     -1000.0     -1000.0     -1000.0     -1000.0     -1000.0     -1000.0     -1000.0     -1000.0     -1000.0    
      -1000.0     -1000.0     -1000.0     -1000.0     -1000.0     -1000.0     -1000.0     -1000.0     -1000.0     -1000.0    
      -1000.0     -1000.0     -1000.0     -1000.0     -1000.0     -1000.0     -1000.0     -1000.0     -1000.0     -1000.0    
      -1000.0     -1000.0     -1000.0     -1000.0     -1000.0     -1000.0     -1000.0     -1000.0     -1000.0     -1000.0    
      -1000.0     -1000.0     -1000.0     -1000.0     -1000.0     -1000.0     -1000.0     -1000.0     -1000.0     -1000.0    
      -1000.0     -1000.0     -1000.0     -1000.0     -1000.0     -1000.0     -1000.0     -1000.0     -1000.0     -1000.0    
      -1000.0     -1000.0     -1000.0     -1000.0     -1000.0     -1000.0     -1000.0     -1000.0     -1000.0     -1000.0    
      -1000.0     -1000.0     -1000.0     -1000.0     -1000.0     -1000.0     -1000.0     -1000.0     -1000.0     -1000.0    
      -1000.0     -1000.0     -1000.0     -1000.0     -1000.0     -1000.0     -1000.0     -1000.0     -1000.0     -1000.0    
      -1000.0     -1000.0     -1000.0     -1000.0     -1000.0     -1000.0     -1000.0     -1000.0     -1000.0     -1000.0    
      -1000.0     -1000.0     -1000.0     -1000.0     -1000.0    
  12  -1000.0     -1000.0     -1000.0     -1000.0     -1000.0     -1000.0     -1000.0     -1000.0     -1000.0     -1000.0    
      -1000.0     -1000.0     -1000.0     -1000.0     -1000.0     -1000.0     -1000.0     -1000.0     -1000.0     -1000.0    
      -1000.0     -1000.0     -1000.0     -1000.0     -1000.0     -1000.0     -1000.0     -1000.0     -1000.0     -1000.0    
      -1000.0     -1000.0     -1000.0     -1000.0     -1000.0     -1000.0     -1000.0     -1000.0     -1000.0     -1000.0    
      -1000.0     -1000.0     -1000.0     -1000.0     -1000.0     -1000.0     -1000.0     -1000.0     -1000.0     -1000.0    
      -1000.0     -1000.0     -1000.0     -1000.0     -1000.0     -1000.0     -1000.0     -1000.0     -1000.0     -1000.0    
      -1000.0     -1000.0     -1000.0     -1000.0     -1000.0     -1000.0     -1000.0     -1000.0     -1000.0     -1000.0    
      -1000.0     -1000.0     -1000.0     -1000.0     -1000.0     -1000.0     -1000.0     -1000.0     -1000.0     -1000.0    
      -1000.0     -1000.0     -1000.0     -1000.0     -1000.0     -1000.0     -1000.0     -1000.0     -1000.0     -1000.0    
      -1000.0     -1000.0     -1000.0     -1000.0     -1000.0     -1000.0     -1000.0     -1000.0     -1000.0     -1000.0    
      -1000.0     -1000.0     -1000.0     -1000.0     -1000.0     -1000.0     -1000.0     -1000.0     -1000.0     -1000.0    
      -1000.0     -1000.0     -1000.0     -1000.0     -1000.0     -1000.0     -1000.0     -1000.0     -1000.0     -1000.0    
      -1000.0     -1000.0     -1000.0     -1000.0     -1000.0     -1000.0     -1000.0     -1000.0     -1000.0     -1000.0    
      -1000.0     -1000.0     -1000.0     -1000.0     -1000.0     -1000.0     -1000.0     -1000.0     -1000.0     -1000.0    
      -1000.0     -1000.0     -1000.0     -1000.0     -1000.0    
  13  -1000.0     -1000.0     -1000.0     -1000.0     -1000.0     -1000.0     -1000.0     -1000.0     -1000.0     -1000.0    
      -1000.0     -1000.0     -1000.0     -1000.0     -1000.0     -1000.0     -1000.0     -1000.0     -1000.0     -1000.0    
      -1000.0     -1000.0     -1000.0     -1000.0     -1000.0     -1000.0     -1000.0     -1000.0     -1000.0     -1000.0    
      -1000.0     -1000.0     -1000.0     -1000.0     -1000.0     -1000.0     -1000.0     -1000.0     -1000.0     -1000.0    
      -1000.0     -1000.0     -1000.0     -1000.0     -1000.0     -1000.0     -1000.0     -1000.0     -1000.0     -1000.0    
      -1000.0     -1000.0     -1000.0     -1000.0     -1000.0     -1000.0     -1000.0     -1000.0     -1000.0     -1000.0    
      -1000.0     -1000.0     -1000.0     -1000.0     -1000.0     -1000.0     -1000.0     -1000.0     -1000.0     -1000.0    
      -1000.0     -1000.0     -1000.0     -1000.0     -1000.0     -1000.0     -1000.0     -1000.0     -1000.0     -1000.0    
      -1000.0     -1000.0     -1000.0     -1000.0     -1000.0     -1000.0     -1000.0     -1000.0     -1000.0     -1000.0    
      -1000.0     -1000.0     -1000.0     -1000.0     -1000.0     -1000.0     -1000.0     -1000.0     -1000.0     -1000.0    
      -1000.0     -1000.0     -1000.0     -1000.0     -1000.0     -1000.0     -1000.0     -1000.0     -1000.0     -1000.0    
      -1000.0     -1000.0     -1000.0     -1000.0     -1000.0     -1000.0     -1000.0     -1000.0     -1000.0     -1000.0    
      -1000.0     -1000.0     -1000.0     -1000.0     -1000.0     -1000.0     -1000.0     -1000.0     -1000.0     -1000.0    
      -1000.0     -1000.0     -1000.0     -1000.0     -1000.0     -1000.0     -1000.0     -1000.0     -1000.0     -1000.0    
      -1000.0     -1000.0     -1000.0     -1000.0     -1000.0    
  14  -1000.0     -1000.0     -1000.0     -1000.0     -1000.0     -1000.0     -1000.0     -1000.0     -1000.0     -1000.0    
      -1000.0     -1000.0     -1000.0     -1000.0     -1000.0     -1000.0     -1000.0     -1000.0     -1000.0     -1000.0    
      -1000.0     -1000.0     -1000.0     -1000.0     -1000.0     -1000.0     -1000.0     -1000.0     -1000.0     -1000.0    
      -1000.0     -1000.0     -1000.0     -1000.0     -1000.0     -1000.0     -1000.0     -1000.0     -1000.0     -1000.0    
      -1000.0     -1000.0     -1000.0     -1000.0     -1000.0     -1000.0     -1000.0     -1000.0     -1000.0     -1000.0    
      -1000.0     -1000.0     -1000.0     -1000.0     -1000.0     -1000.0     -1000.0     -1000.0     -1000.0     -1000.0    
      -1000.0     -1000.0     -1000.0     -1000.0     -1000.0     -1000.0     -1000.0     -1000.0     -1000.0     -1000.0    
      -1000.0     -1000.0     -1000.0     -1000.0     -1000.0     -1000.0     -1000.0     -1000.0     -1000.0     -1000.0    
      -1000.0     -1000.0     -1000.0     -1000.0     -1000.0     -1000.0     -1000.0     -1000.0     -1000.0     -1000.0    
      -1000.0     -1000.0     -1000.0     -1000.0     -1000.0     -1000.0     -1000.0     -1000.0     -1000.0     -1000.0    
      -1000.0     -1000.0     -1000.0     -1000.0     -1000.0     -1000.0     -1000.0     -1000.0     -1000.0     -1000.0    
      -1000.0     -1000.0     -1000.0     -1000.0     -1000.0     -1000.0     -1000.0     -1000.0     -1000.0     -1000.0    
      -1000.0     -1000.0     -1000.0     -1000.0     -1000.0     -1000.0     -1000.0     -1000.0     -1000.0     -1000.0    
      -1000.0     -1000.0     -1000.0     -1000.0     -1000.0     -1000.0     -1000.0     -1000.0     -1000.0     -1000.0    
      -1000.0     -1000.0     -1000.0     -1000.0     -1000.0    
  15  -1000.0     -1000.0     -1000.0     -1000.0     -1000.0     -1000.0     -1000.0     -1000.0     -1000.0     -1000.0    
      -1000.0     -1000.0     -1000.0     -1000.0     -1000.0     -1000.0     -1000.0     -1000.0     -1000.0     -1000.0    
      -1000.0     -1000.0     -1000.0     -1000.0     -1000.0     -1000.0     -1000.0     -1000.0     -1000.0     -1000.0    
      -1000.0     -1000.0     -1000.0     -1000.0     -1000.0     -1000.0     -1000.0     -1000.0     -1000.0     -1000.0    
      -1000.0     -1000.0     -1000.0     -1000.0     -1000.0     -1000.0     -1000.0     -1000.0     -1000.0     -1000.0    
      -1000.0     -1000.0     -1000.0     -1000.0     -1000.0     -1000.0     -1000.0     -1000.0     -1000.0     -1000.0    
      -1000.0     -1000.0     -1000.0     -1000.0     -1000.0     -1000.0     -1000.0     -1000.0     -1000.0     -1000.0    
      -1000.0     -1000.0     -1000.0     -1000.0     -1000.0     -1000.0     -1000.0     -1000.0     -1000.0     -1000.0    
      -1000.0     -1000.0     -1000.0     -1000.0     -1000.0     -1000.0     -1000.0     -1000.0     -1000.0     -1000.0    
      -1000.0     -1000.0     -1000.0     -1000.0     -1000.0     -1000.0     -1000.0     -1000.0     -1000.0     -1000.0    
      -1000.0     -1000.0     -1000.0     -1000.0     -1000.0     -1000.0     -1000.0     -1000.0     -1000.0     -1000.0    
      -1000.0     -1000.0     -1000.0     -1000.0     -1000.0     -1000.0     -1000.0     -1000.0     -1000.0     -1000.0    
      -1000.0     -1000.0     -1000.0     -1000.0     -1000.0     -1000.0     -1000.0     -1000.0     -1000.0     -1000.0    
      -1000.0     -1000.0     -1000.0     -1000.0     -1000.0     -1000.0     -1000.0     -1000.0     -1000.0     -1000.0    
      -1000.0     -1000.0     -1000.0     -1000.0     -1000.0    
  16  -1000.0     -1000.0     -1000.0     -1000.0     -1000.0     -1000.0     -1000.0     -1000.0     -1000.0     -1000.0    
      -1000.0     -1000.0     -1000.0     -1000.0     -1000.0     -1000.0     -1000.0     -1000.0     -1000.0     -1000.0    
      -1000.0     -1000.0     -1000.0     -1000.0     -1000.0     -1000.0     -1000.0     -1000.0     -1000.0     -1000.0    
      -1000.0     -1000.0     -1000.0     -1000.0     -1000.0     -1000.0     -1000.0     -1000.0     -1000.0     -1000.0    
      -1000.0     -1000.0     -1000.0     -1000.0     -1000.0     -1000.0     -1000.0     -1000.0     -1000.0     -1000.0    
      -1000.0     -1000.0     -1000.0     -1000.0     -1000.0     -1000.0     -1000.0     -1000.0     -1000.0     -1000.0    
      -1000.0     -1000.0     -1000.0     -1000.0     -1000.0     -1000.0     -1000.0     -1000.0     -1000.0     -1000.0    
      -1000.0     -1000.0     -1000.0     -1000.0     -1000.0     -1000.0     -1000.0     -1000.0     -1000.0     -1000.0    
      -1000.0     -1000.0     -1000.0     -1000.0     -1000.0     -1000.0     -1000.0     -1000.0     -1000.0     -1000.0    
      -1000.0     -1000.0     -1000.0     -1000.0     -1000.0     -1000.0     -1000.0     -1000.0     -1000.0     -1000.0    
      -1000.0     -1000.0     -1000.0     -1000.0     -1000.0     -1000.0     -1000.0     -1000.0     -1000.0     -1000.0    
      -1000.0     -1000.0     -1000.0     -1000.0     -1000.0     -1000.0     -1000.0     -1000.0     -1000.0     -1000.0    
      -1000.0     -1000.0     -1000.0     -1000.0     -1000.0     -1000.0     -1000.0     -1000.0     -1000.0     -1000.0    
      -1000.0     -1000.0     -1000.0     -1000.0     -1000.0     -1000.0     -1000.0     -1000.0     -1000.0     -1000.0    
      -1000.0     -1000.0     -1000.0     -1000.0     -1000.0    
  17  -1000.0     -1000.0     -1000.0     -1000.0     -1000.0     -1000.0     -1000.0     -1000.0     -1000.0     -1000.0    
      -1000.0     -1000.0     -1000.0     -1000.0     -1000.0     -1000.0     -1000.0     -1000.0     -1000.0     -1000.0    
      -1000.0     -1000.0     -1000.0     -1000.0     -1000.0     -1000.0     -1000.0     -1000.0     -1000.0     -1000.0    
      -1000.0     -1000.0     -1000.0     -1000.0     -1000.0     -1000.0     -1000.0     -1000.0     -1000.0     -1000.0    
      -1000.0     -1000.0     -1000.0     -1000.0     -1000.0     -1000.0     -1000.0     -1000.0     -1000.0     -1000.0    
      -1000.0     -1000.0     -1000.0     -1000.0     -1000.0     -1000.0     -1000.0     -1000.0     -1000.0     -1000.0    
      -1000.0     -1000.0     -1000.0     -1000.0     -1000.0     -1000.0     -1000.0     -1000.0     -1000.0     -1000.0    
      -1000.0     -1000.0     -1000.0     -1000.0     -1000.0     -1000.0     -1000.0     -1000.0     -1000.0     -1000.0    
      -1000.0     -1000.0     -1000.0     -1000.0     -1000.0     -1000.0     -1000.0     -1000.0     -1000.0     -1000.0    
      -1000.0     -1000.0     -1000.0     -1000.0     -1000.0     -1000.0     -1000.0     -1000.0     -1000.0     -1000.0    
      -1000.0     -1000.0     -1000.0     -1000.0     -1000.0     -1000.0     -1000.0     -1000.0     -1000.0     -1000.0    
      -1000.0     -1000.0     -1000.0     -1000.0     -1000.0     -1000.0     -1000.0     -1000.0     -1000.0     -1000.0    
      -1000.0     -1000.0     -1000.0     -1000.0     -1000.0     -1000.0     -1000.0     -1000.0     -1000.0     -1000.0    
      -1000.0     -1000.0     -1000.0     -1000.0     -1000.0     -1000.0     -1000.0     -1000.0     -1000.0     -1000.0    
      -1000.0     -1000.0     -1000.0     -1000.0     -1000.0    
  18  -1000.0     -1000.0     -1000.0     -1000.0     -1000.0     -1000.0     -1000.0     -1000.0     -1000.0     -1000.0    
      -1000.0     -1000.0     -1000.0     -1000.0     -1000.0     -1000.0     -1000.0     -1000.0     -1000.0     -1000.0    
      -1000.0     -1000.0     -1000.0     -1000.0     -1000.0     -1000.0     -1000.0     -1000.0     -1000.0     -1000.0    
      -1000.0     -1000.0     -1000.0     -1000.0     -1000.0     -1000.0     -1000.0     -1000.0     -1000.0     -1000.0    
      -1000.0     -1000.0     -1000.0     -1000.0     -1000.0     -1000.0     -1000.0     -1000.0     -1000.0     -1000.0    
      -1000.0     -1000.0     -1000.0     -1000.0     -1000.0     -1000.0     -1000.0     -1000.0     -1000.0     -1000.0    
      -1000.0     -1000.0     -1000.0     -1000.0     -1000.0     -1000.0     -1000.0     -1000.0     -1000.0     -1000.0    
      -1000.0     -1000.0     -1000.0     -1000.0     -1000.0     -1000.0     -1000.0     -1000.0     -1000.0     -1000.0    
      -1000.0     -1000.0     -1000.0     -1000.0     -1000.0     -1000.0     -1000.0     -1000.0     -1000.0     -1000.0    
      -1000.0     -1000.0     -1000.0     -1000.0     -1000.0     -1000.0     -1000.0     -1000.0     -1000.0     -1000.0    
      -1000.0     -1000.0     -1000.0     -1000.0     -1000.0     -1000.0     -1000.0     -1000.0     -1000.0     -1000.0    
      -1000.0     -1000.0     -1000.0     -1000.0     -1000.0     -1000.0     -1000.0     -1000.0     -1000.0     -1000.0    
      -1000.0     -1000.0     -1000.0     -1000.0     -1000.0     -1000.0     -1000.0     -1000.0     -1000.0     -1000.0    
      -1000.0     -1000.0     -1000.0     -1000.0     -1000.0     -1000.0     -1000.0     -1000.0     -1000.0     -1000.0    
      -1000.0     -1000.0     -1000.0     -1000.0     -1000.0    
  19  -1000.0     -1000.0     -1000.0     -1000.0     -1000.0     -1000.0     -1000.0     -1000.0     -1000.0     -1000.0    
      -1000.0     -1000.0     -1000.0     -1000.0     -1000.0     -1000.0     -1000.0     -1000.0     -1000.0     -1000.0    
      -1000.0     -1000.0     -1000.0     -1000.0     -1000.0     -1000.0     -1000.0     -1000.0     -1000.0     -1000.0    
      -1000.0     -1000.0     -1000.0     -1000.0     -1000.0     -1000.0     -1000.0     -1000.0     -1000.0     -1000.0    
      -1000.0     -1000.0     -1000.0     -1000.0     -1000.0     -1000.0     -1000.0     -1000.0     -1000.0     -1000.0    
      -1000.0     -1000.0     -1000.0     -1000.0     -1000.0     -1000.0     -1000.0     -1000.0     -1000.0     -1000.0    
      -1000.0     -1000.0     -1000.0     -1000.0     -1000.0     -1000.0     -1000.0     -1000.0     -1000.0     -1000.0    
      -1000.0     -1000.0     -1000.0     -1000.0     -1000.0     -1000.0     -1000.0     -1000.0     -1000.0     -1000.0    
      -1000.0     -1000.0     -1000.0     -1000.0     -1000.0     -1000.0     -1000.0     -1000.0     -1000.0     -1000.0    
      -1000.0     -1000.0     -1000.0     -1000.0     -1000.0     -1000.0     -1000.0     -1000.0     -1000.0     -1000.0    
      -1000.0     -1000.0     -1000.0     -1000.0     -1000.0     -1000.0     -1000.0     -1000.0     -1000.0     -1000.0    
      -1000.0     -1000.0     -1000.0     -1000.0     -1000.0     -1000.0     -1000.0     -1000.0     -1000.0     -1000.0    
      -1000.0     -1000.0     -1000.0     -1000.0     -1000.0     -1000.0     -1000.0     -1000.0     -1000.0     -1000.0    
      -1000.0     -1000.0     -1000.0     -1000.0     -1000.0     -1000.0     -1000.0     -1000.0     -1000.0     -1000.0    
      -1000.0     -1000.0     -1000.0     -1000.0     -1000.0    
  20  -1000.0     -1000.0     -1000.0     -1000.0     -1000.0     -1000.0     -1000.0     -1000.0     -1000.0     -1000.0    
      -1000.0     -1000.0     -1000.0     -1000.0     -1000.0     -1000.0     -1000.0     -1000.0     -1000.0     -1000.0    
      -1000.0     -1000.0     -1000.0     -1000.0     -1000.0     -1000.0     -1000.0     -1000.0     -1000.0     -1000.0    
      -1000.0     -1000.0     -1000.0     -1000.0     -1000.0     -1000.0     -1000.0     -1000.0     -1000.0     -1000.0    
      -1000.0     -1000.0     -1000.0     -1000.0     -1000.0     -1000.0     -1000.0     -1000.0     -1000.0     -1000.0    
      -1000.0     -1000.0     -1000.0     -1000.0     -1000.0     -1000.0     -1000.0     -1000.0     -1000.0     -1000.0    
      -1000.0     -1000.0     -1000.0     -1000.0     -1000.0     -1000.0     -1000.0     -1000.0     -1000.0     -1000.0    
      -1000.0     -1000.0     -1000.0     -1000.0     -1000.0     -1000.0     -1000.0     -1000.0     -1000.0     -1000.0    
      -1000.0     -1000.0     -1000.0     -1000.0     -1000.0     -1000.0     -1000.0     -1000.0     -1000.0     -1000.0    
      -1000.0     -1000.0     -1000.0     -1000.0     -1000.0     -1000.0     -1000.0     -1000.0     -1000.0     -1000.0    
      -1000.0     -1000.0     -1000.0     -1000.0     -1000.0     -1000.0     -1000.0     -1000.0     -1000.0     -1000.0    
      -1000.0     -1000.0     -1000.0     -1000.0     -1000.0     -1000.0     -1000.0     -1000.0     -1000.0     -1000.0    
      -1000.0     -1000.0     -1000.0     -1000.0     -1000.0     -1000.0     -1000.0     -1000.0     -1000.0     -1000.0    
      -1000.0     -1000.0     -1000.0     -1000.0     -1000.0     -1000.0     -1000.0     -1000.0     -1000.0     -1000.0    
      -1000.0     -1000.0     -1000.0     -1000.0     -1000.0    
  21  -1000.0     -1000.0     -1000.0     -1000.0     -1000.0     -1000.0     -1000.0     -1000.0     -1000.0     -1000.0    
      -1000.0     -1000.0     -1000.0     -1000.0     -1000.0     -1000.0     -1000.0     -1000.0     -1000.0     -1000.0    
      -1000.0     -1000.0     -1000.0     -1000.0     -1000.0     -1000.0     -1000.0     -1000.0     -1000.0     -1000.0    
      -1000.0     -1000.0     -1000.0     -1000.0     -1000.0     -1000.0     -1000.0     -1000.0     -1000.0     -1000.0    
      -1000.0     -1000.0     -1000.0     -1000.0     -1000.0     -1000.0     -1000.0     -1000.0     -1000.0     -1000.0    
      -1000.0     -1000.0     -1000.0     -1000.0     -1000.0     -1000.0     -1000.0     -1000.0     -1000.0     -1000.0    
      -1000.0     -1000.0     -1000.0     -1000.0     -1000.0     -1000.0     -1000.0     -1000.0     -1000.0     -1000.0    
      -1000.0     -1000.0     -1000.0     -1000.0     -1000.0     -1000.0     -1000.0     -1000.0     -1000.0     -1000.0    
      -1000.0     -1000.0     -1000.0     -1000.0     -1000.0     -1000.0     -1000.0     -1000.0     -1000.0     -1000.0    
      -1000.0     -1000.0     -1000.0     -1000.0     -1000.0     -1000.0     -1000.0     -1000.0     -1000.0     -1000.0    
      -1000.0     -1000.0     -1000.0     -1000.0     -1000.0     -1000.0     -1000.0     -1000.0     -1000.0     -1000.0    
      -1000.0     -1000.0     -1000.0     -1000.0     -1000.0     -1000.0     -1000.0     -1000.0     -1000.0     -1000.0    
      -1000.0     -1000.0     -1000.0     -1000.0     -1000.0     -1000.0     -1000.0     -1000.0     -1000.0     -1000.0    
      -1000.0     -1000.0     -1000.0     -1000.0     -1000.0     -1000.0     -1000.0     -1000.0     -1000.0     -1000.0    
      -1000.0     -1000.0     -1000.0     -1000.0     -1000.0    
  22  -1000.0     -1000.0     -1000.0     -1000.0     -1000.0     -1000.0     -1000.0     -1000.0     -1000.0     -1000.0    
      -1000.0     -1000.0     -1000.0     -1000.0     -1000.0     -1000.0     -1000.0     -1000.0     -1000.0     -1000.0    
      -1000.0     -1000.0     -1000.0     -1000.0     -1000.0     -1000.0     -1000.0     -1000.0     -1000.0     -1000.0    
      -1000.0     -1000.0     -1000.0     -1000.0     -1000.0     -1000.0     -1000.0     -1000.0     -1000.0     -1000.0    
      -1000.0     -1000.0     -1000.0     -1000.0     -1000.0     -1000.0     -1000.0     -1000.0     -1000.0     -1000.0    
      -1000.0     -1000.0     -1000.0     -1000.0     -1000.0     -1000.0     -1000.0     -1000.0     -1000.0     -1000.0    
      -1000.0     -1000.0     -1000.0     -1000.0     -1000.0     -1000.0     -1000.0     -1000.0     -1000.0     -1000.0    
      -1000.0     -1000.0     -1000.0     -1000.0     -1000.0     -1000.0     -1000.0     -1000.0     -1000.0     -1000.0    
      -1000.0     -1000.0     -1000.0     -1000.0     -1000.0     -1000.0     -1000.0     -1000.0     -1000.0     -1000.0    
      -1000.0     -1000.0     -1000.0     -1000.0     -1000.0     -1000.0     -1000.0     -1000.0     -1000.0     -1000.0    
      -1000.0     -1000.0     -1000.0     -1000.0     -1000.0     -1000.0     -1000.0     -1000.0     -1000.0     -1000.0    
      -1000.0     -1000.0     -1000.0     -1000.0     -1000.0     -1000.0     -1000.0     -1000.0     -1000.0     -1000.0    
      -1000.0     -1000.0     -1000.0     -1000.0     -1000.0     -1000.0     -1000.0     -1000.0     -1000.0     -1000.0    
      -1000.0     -1000.0     -1000.0     -1000.0     -1000.0     -1000.0     -1000.0     -1000.0     -1000.0     -1000.0    
      -1000.0     -1000.0     -1000.0     -1000.0     -1000.0    
  23  -1000.0     -1000.0     -1000.0     -1000.0     -1000.0     -1000.0     -1000.0     -1000.0     -1000.0     -1000.0    
      -1000.0     -1000.0     -1000.0     -1000.0     -1000.0     -1000.0     -1000.0     -1000.0     -1000.0     -1000.0    
      -1000.0     -1000.0     -1000.0     -1000.0     -1000.0     -1000.0     -1000.0     -1000.0     -1000.0     -1000.0    
      -1000.0     -1000.0     -1000.0     -1000.0     -1000.0     -1000.0     -1000.0     -1000.0     -1000.0     -1000.0    
      -1000.0     -1000.0     -1000.0     -1000.0     -1000.0     -1000.0     -1000.0     -1000.0     -1000.0     -1000.0    
      -1000.0     -1000.0     -1000.0     -1000.0     -1000.0     -1000.0     -1000.0     -1000.0     -1000.0     -1000.0    
      -1000.0     -1000.0     -1000.0     -1000.0     -1000.0     -1000.0     -1000.0     -1000.0     -1000.0     -1000.0    
      -1000.0     -1000.0     -1000.0     -1000.0     -1000.0     -1000.0     -1000.0     -1000.0     -1000.0     -1000.0    
      -1000.0     -1000.0     -1000.0     -1000.0     -1000.0     -1000.0     -1000.0     -1000.0     -1000.0     -1000.0    
      -1000.0     -1000.0     -1000.0     -1000.0     -1000.0     -1000.0     -1000.0     -1000.0     -1000.0     -1000.0    
      -1000.0     -1000.0     -1000.0     -1000.0     -1000.0     -1000.0     -1000.0     -1000.0     -1000.0     -1000.0    
      -1000.0     -1000.0     -1000.0     -1000.0     -1000.0     -1000.0     -1000.0     -1000.0     -1000.0     -1000.0    
      -1000.0     -1000.0     -1000.0     -1000.0     -1000.0     -1000.0     -1000.0     -1000.0     -1000.0     -1000.0    
      -1000.0     -1000.0     -1000.0     -1000.0     -1000.0     -1000.0     -1000.0     -1000.0     -1000.0     -1000.0    
      -1000.0     -1000.0     -1000.0     -1000.0     -1000.0    
  24  -1000.0     -1000.0     -1000.0     -1000.0     -1000.0     -1000.0     -1000.0     -1000.0     -1000.0     -1000.0    
      -1000.0     -1000.0     -1000.0     -1000.0     -1000.0     -1000.0     -1000.0     -1000.0     -1000.0     -1000.0    
      -1000.0     -1000.0     -1000.0     -1000.0     -1000.0     -1000.0     -1000.0     -1000.0     -1000.0     -1000.0    
      -1000.0     -1000.0     -1000.0     -1000.0     -1000.0     -1000.0     -1000.0     -1000.0     -1000.0     -1000.0    
      -1000.0     -1000.0     -1000.0     -1000.0     -1000.0     -1000.0     -1000.0     -1000.0     -1000.0     -1000.0    
      -1000.0     -1000.0     -1000.0     -1000.0     -1000.0     -1000.0     -1000.0     -1000.0     -1000.0     -1000.0    
      -1000.0     -1000.0     -1000.0     -1000.0     -1000.0     -1000.0     -1000.0     -1000.0     -1000.0     -1000.0    
      -1000.0     -1000.0     -1000.0     -1000.0     -1000.0     -1000.0     -1000.0     -1000.0     -1000.0     -1000.0    
      -1000.0     -1000.0     -1000.0     -1000.0     -1000.0     -1000.0     -1000.0     -1000.0     -1000.0     -1000.0    
      -1000.0     -1000.0     -1000.0     -1000.0     -1000.0     -1000.0     -1000.0     -1000.0     -1000.0     -1000.0    
      -1000.0     -1000.0     -1000.0     -1000.0     -1000.0     -1000.0     -1000.0     -1000.0     -1000.0     -1000.0    
      -1000.0     -1000.0     -1000.0     -1000.0     -1000.0     -1000.0     -1000.0     -1000.0     -1000.0     -1000.0    
      -1000.0     -1000.0     -1000.0     -1000.0     -1000.0     -1000.0     -1000.0     -1000.0     -1000.0     -1000.0    
      -1000.0     -1000.0     -1000.0     -1000.0     -1000.0     -1000.0     -1000.0     -1000.0     -1000.0     -1000.0    
      -1000.0     -1000.0     -1000.0     -1000.0     -1000.0    
  25  -1000.0     -1000.0     -1000.0     -1000.0     -1000.0     -1000.0     -1000.0     -1000.0     -1000.0     -1000.0    
      -1000.0     -1000.0     -1000.0     -1000.0     -1000.0     -1000.0     -1000.0     -1000.0     -1000.0     -1000.0    
      -1000.0     -1000.0     -1000.0     -1000.0     -1000.0     -1000.0     -1000.0     -1000.0     -1000.0     -1000.0    
      -1000.0     -1000.0     -1000.0     -1000.0     -1000.0     -1000.0     -1000.0     -1000.0     -1000.0     -1000.0    
      -1000.0     -1000.0     -1000.0     -1000.0     -1000.0     -1000.0     -1000.0     -1000.0     -1000.0     -1000.0    
      -1000.0     -1000.0     -1000.0     -1000.0     -1000.0     -1000.0     -1000.0     -1000.0     -1000.0     -1000.0    
      -1000.0     -1000.0     -1000.0     -1000.0     -1000.0     -1000.0     -1000.0     -1000.0     -1000.0     -1000.0    
      -1000.0     -1000.0     -1000.0     -1000.0     -1000.0     -1000.0     -1000.0     -1000.0     -1000.0     -1000.0    
      -1000.0     -1000.0     -1000.0     -1000.0     -1000.0     -1000.0     -1000.0     -1000.0     -1000.0     -1000.0    
      -1000.0     -1000.0     -1000.0     -1000.0     -1000.0     -1000.0     -1000.0     -1000.0     -1000.0     -1000.0    
      -1000.0     -1000.0     -1000.0     -1000.0     -1000.0     -1000.0     -1000.0     -1000.0     -1000.0     -1000.0    
      -1000.0     -1000.0     -1000.0     -1000.0     -1000.0     -1000.0     -1000.0     -1000.0     -1000.0     -1000.0    
      -1000.0     -1000.0     -1000.0     -1000.0     -1000.0     -1000.0     -1000.0     -1000.0     -1000.0     -1000.0    
      -1000.0     -1000.0     -1000.0     -1000.0     -1000.0     -1000.0     -1000.0     -1000.0     -1000.0     -1000.0    
      -1000.0     -1000.0     -1000.0     -1000.0     -1000.0    
  26  -1000.0     -1000.0     -1000.0     -1000.0     -1000.0     -1000.0     -1000.0     -1000.0     -1000.0     -1000.0    
      -1000.0     -1000.0     -1000.0     -1000.0     -1000.0     -1000.0     -1000.0     -1000.0     -1000.0     -1000.0    
      -1000.0     -1000.0     -1000.0     -1000.0     -1000.0     -1000.0     -1000.0     -1000.0     -1000.0     -1000.0    
      -1000.0     -1000.0     -1000.0     -1000.0     -1000.0     -1000.0     -1000.0     -1000.0     -1000.0     -1000.0    
      -1000.0     -1000.0     -1000.0     -1000.0     -1000.0     -1000.0     -1000.0     -1000.0     -1000.0     -1000.0    
      -1000.0     -1000.0     -1000.0     -1000.0     -1000.0     -1000.0     -1000.0     -1000.0     -1000.0     -1000.0    
      -1000.0     -1000.0     -1000.0     -1000.0     -1000.0     -1000.0     -1000.0     -1000.0     -1000.0     -1000.0    
      -1000.0     -1000.0     -1000.0     -1000.0     -1000.0     -1000.0     -1000.0     -1000.0     -1000.0     -1000.0    
      -1000.0     -1000.0     -1000.0     -1000.0     -1000.0     -1000.0     -1000.0     -1000.0     -1000.0     -1000.0    
      -1000.0     -1000.0     -1000.0     -1000.0     -1000.0     -1000.0     -1000.0     -1000.0     -1000.0     -1000.0    
      -1000.0     -1000.0     -1000.0     -1000.0     -1000.0     -1000.0     -1000.0     -1000.0     -1000.0     -1000.0    
      -1000.0     -1000.0     -1000.0     -1000.0     -1000.0     -1000.0     -1000.0     -1000.0     -1000.0     -1000.0    
      -1000.0     -1000.0     -1000.0     -1000.0     -1000.0     -1000.0     -1000.0     -1000.0     -1000.0     -1000.0    
      -1000.0     -1000.0     -1000.0     -1000.0     -1000.0     -1000.0     -1000.0     -1000.0     -1000.0     -1000.0    
      -1000.0     -1000.0     -1000.0     -1000.0     -1000.0    
  27  -1000.0     -1000.0     -1000.0     -1000.0     -1000.0     -1000.0     -1000.0     -1000.0     -1000.0     -1000.0    
      -1000.0     -1000.0     -1000.0     -1000.0     -1000.0     -1000.0     -1000.0     -1000.0     -1000.0     -1000.0    
      -1000.0     -1000.0     -1000.0     -1000.0     -1000.0     -1000.0     -1000.0     -1000.0     -1000.0     -1000.0    
      -1000.0     -1000.0     -1000.0     -1000.0     -1000.0     -1000.0     -1000.0     -1000.0     -1000.0     -1000.0    
      -1000.0     -1000.0     -1000.0     -1000.0     -1000.0     -1000.0     -1000.0     -1000.0     -1000.0     -1000.0    
      -1000.0     -1000.0     -1000.0     -1000.0     -1000.0     -1000.0     -1000.0     -1000.0     -1000.0     -1000.0    
      -1000.0     -1000.0     -1000.0     -1000.0     -1000.0     -1000.0     -1000.0     -1000.0     -1000.0     -1000.0    
      -1000.0     -1000.0     -1000.0     -1000.0     -1000.0     -1000.0     -1000.0     -1000.0     -1000.0     -1000.0    
      -1000.0     -1000.0     -1000.0     -1000.0     -1000.0     -1000.0     -1000.0     -1000.0     -1000.0     -1000.0    
      -1000.0     -1000.0     -1000.0     -1000.0     -1000.0     -1000.0     -1000.0     -1000.0     -1000.0     -1000.0    
      -1000.0     -1000.0     -1000.0     -1000.0     -1000.0     -1000.0     -1000.0     -1000.0     -1000.0     -1000.0    
      -1000.0     -1000.0     -1000.0     -1000.0     -1000.0     -1000.0     -1000.0     -1000.0     -1000.0     -1000.0    
      -1000.0     -1000.0     -1000.0     -1000.0     -1000.0     -1000.0     -1000.0     -1000.0     -1000.0     -1000.0    
      -1000.0     -1000.0     -1000.0     -1000.0     -1000.0     -1000.0     -1000.0     -1000.0     -1000.0     -1000.0    
      -1000.0     -1000.0     -1000.0     -1000.0     -1000.0    
  28  -1000.0     -1000.0     -1000.0     -1000.0     -1000.0     -1000.0     -1000.0     -1000.0     -1000.0     -1000.0    
      -1000.0     -1000.0     -1000.0     -1000.0     -1000.0     -1000.0     -1000.0     -1000.0     -1000.0     -1000.0    
      -1000.0     -1000.0     -1000.0     -1000.0     -1000.0     -1000.0     -1000.0     -1000.0     -1000.0     -1000.0    
      -1000.0     -1000.0     -1000.0     -1000.0     -1000.0     -1000.0     -1000.0     -1000.0     -1000.0     -1000.0    
      -1000.0     -1000.0     -1000.0     -1000.0     -1000.0     -1000.0     -1000.0     -1000.0     -1000.0     -1000.0    
      -1000.0     -1000.0     -1000.0     -1000.0     -1000.0     -1000.0     -1000.0     -1000.0     -1000.0     -1000.0    
      -1000.0     -1000.0     -1000.0     -1000.0     -1000.0     -1000.0     -1000.0     -1000.0     -1000.0     -1000.0    
      -1000.0     -1000.0     -1000.0     -1000.0     -1000.0     -1000.0     -1000.0     -1000.0     -1000.0     -1000.0    
      -1000.0     -1000.0     -1000.0     -1000.0     -1000.0     -1000.0     -1000.0     -1000.0     -1000.0     -1000.0    
      -1000.0     -1000.0     -1000.0     -1000.0     -1000.0     -1000.0     -1000.0     -1000.0     -1000.0     -1000.0    
      -1000.0     -1000.0     -1000.0     -1000.0     -1000.0     -1000.0     -1000.0     -1000.0     -1000.0     -1000.0    
      -1000.0     -1000.0     -1000.0     -1000.0     -1000.0     -1000.0     -1000.0     -1000.0     -1000.0     -1000.0    
      -1000.0     -1000.0     -1000.0     -1000.0     -1000.0     -1000.0     -1000.0     -1000.0     -1000.0     -1000.0    
      -1000.0     -1000.0     -1000.0     -1000.0     -1000.0     -1000.0     -1000.0     -1000.0     -1000.0     -1000.0    
      -1000.0     -1000.0     -1000.0     -1000.0     -1000.0    
  29  -1000.0     -1000.0     -1000.0     -1000.0     -1000.0     -1000.0     -1000.0     -1000.0     -1000.0     -1000.0    
      -1000.0     -1000.0     -1000.0     -1000.0     -1000.0     -1000.0     -1000.0     -1000.0     -1000.0     -1000.0    
      -1000.0     -1000.0     -1000.0     -1000.0     -1000.0     -1000.0     -1000.0     -1000.0     -1000.0     -1000.0    
      -1000.0     -1000.0     -1000.0     -1000.0     -1000.0     -1000.0     -1000.0     -1000.0     -1000.0     -1000.0    
      -1000.0     -1000.0     -1000.0     -1000.0     -1000.0     -1000.0     -1000.0     -1000.0     -1000.0     -1000.0    
      -1000.0     -1000.0     -1000.0     -1000.0     -1000.0     -1000.0     -1000.0     -1000.0     -1000.0     -1000.0    
      -1000.0     -1000.0     -1000.0     -1000.0     -1000.0     -1000.0     -1000.0     -1000.0     -1000.0     -1000.0    
      -1000.0     -1000.0     -1000.0     -1000.0     -1000.0     -1000.0     -1000.0     -1000.0     -1000.0     -1000.0    
      -1000.0     -1000.0     -1000.0     -1000.0     -1000.0     -1000.0     -1000.0     -1000.0     -1000.0     -1000.0    
      -1000.0     -1000.0     -1000.0     -1000.0     -1000.0     -1000.0     -1000.0     -1000.0     -1000.0     -1000.0    
      -1000.0     -1000.0     -1000.0     -1000.0     -1000.0     -1000.0     -1000.0     -1000.0     -1000.0     -1000.0    
      -1000.0     -1000.0     -1000.0     -1000.0     -1000.0     -1000.0     -1000.0     -1000.0     -1000.0     -1000.0    
      -1000.0     -1000.0     -1000.0     -1000.0     -1000.0     -1000.0     -1000.0     -1000.0     -1000.0     -1000.0    
      -1000.0     -1000.0     -1000.0     -1000.0     -1000.0     -1000.0     -1000.0     -1000.0     -1000.0     -1000.0    
      -1000.0     -1000.0     -1000.0     -1000.0     -1000.0    
  30  -1000.0     -1000.0     -1000.0     -1000.0     -1000.0     -1000.0     -1000.0     -1000.0     -1000.0     -1000.0    
      -1000.0     -1000.0     -1000.0     -1000.0     -1000.0     -1000.0     -1000.0     -1000.0     -1000.0     -1000.0    
      -1000.0     -1000.0     -1000.0     -1000.0     -1000.0     -1000.0     -1000.0     -1000.0     -1000.0     -1000.0    
      -1000.0     -1000.0     -1000.0     -1000.0     -1000.0     -1000.0     -1000.0     -1000.0     -1000.0     -1000.0    
      -1000.0     -1000.0     -1000.0     -1000.0     -1000.0     -1000.0     -1000.0     -1000.0     -1000.0     -1000.0    
      -1000.0     -1000.0     -1000.0     -1000.0     -1000.0     -1000.0     -1000.0     -1000.0     -1000.0     -1000.0    
      -1000.0     -1000.0     -1000.0     -1000.0     -1000.0     -1000.0     -1000.0     -1000.0     -1000.0     -1000.0    
      -1000.0     -1000.0     -1000.0     -1000.0     -1000.0     -1000.0     -1000.0     -1000.0     -1000.0     -1000.0    
      -1000.0     -1000.0     -1000.0     -1000.0     -1000.0     -1000.0     -1000.0     -1000.0     -1000.0     -1000.0    
      -1000.0     -1000.0     -1000.0     -1000.0     -1000.0     -1000.0     -1000.0     -1000.0     -1000.0     -1000.0    
      -1000.0     -1000.0     -1000.0     -1000.0     -1000.0     -1000.0     -1000.0     -1000.0     -1000.0     -1000.0    
      -1000.0     -1000.0     -1000.0     -1000.0     -1000.0     -1000.0     -1000.0     -1000.0     -1000.0     -1000.0    
      -1000.0     -1000.0     -1000.0     -1000.0     -1000.0     -1000.0     -1000.0     -1000.0     -1000.0     -1000.0    
      -1000.0     -1000.0     -1000.0     -1000.0     -1000.0     -1000.0     -1000.0     -1000.0     -1000.0     -1000.0    
      -1000.0     -1000.0     -1000.0     -1000.0     -1000.0    
  31  -1000.0     -1000.0     -1000.0     -1000.0     -1000.0     -1000.0     -1000.0     -1000.0     -1000.0     -1000.0    
      -1000.0     -1000.0     -1000.0     -1000.0     -1000.0     -1000.0     -1000.0     -1000.0     -1000.0     -1000.0    
      -1000.0     -1000.0     -1000.0     -1000.0     -1000.0     -1000.0     -1000.0     -1000.0     -1000.0     -1000.0    
      -1000.0     -1000.0     -1000.0     -1000.0     -1000.0     -1000.0     -1000.0     -1000.0     -1000.0     -1000.0    
      -1000.0     -1000.0     -1000.0     -1000.0     -1000.0     -1000.0     -1000.0     -1000.0     -1000.0     -1000.0    
      -1000.0     -1000.0     -1000.0     -1000.0     -1000.0     -1000.0     -1000.0     -1000.0     -1000.0     -1000.0    
      -1000.0     -1000.0     -1000.0     -1000.0     -1000.0     -1000.0     -1000.0     -1000.0     -1000.0     -1000.0    
      -1000.0     -1000.0     -1000.0     -1000.0     -1000.0     -1000.0     -1000.0     -1000.0     -1000.0     -1000.0    
      -1000.0     -1000.0     -1000.0     -1000.0     -1000.0     -1000.0     -1000.0     -1000.0     -1000.0     -1000.0    
      -1000.0     -1000.0     -1000.0     -1000.0     -1000.0     -1000.0     -1000.0     -1000.0     -1000.0     -1000.0    
      -1000.0     -1000.0     -1000.0     -1000.0     -1000.0     -1000.0     -1000.0     -1000.0     -1000.0     -1000.0    
      -1000.0     -1000.0     -1000.0     -1000.0     -1000.0     -1000.0     -1000.0     -1000.0     -1000.0     -1000.0    
      -1000.0     -1000.0     -1000.0     -1000.0     -1000.0     -1000.0     -1000.0     -1000.0     -1000.0     -1000.0    
      -1000.0     -1000.0     -1000.0     -1000.0     -1000.0     -1000.0     -1000.0     -1000.0     -1000.0     -1000.0    
      -1000.0     -1000.0     -1000.0     -1000.0     -1000.0    
  32  -1000.0     -1000.0     -1000.0     -1000.0     -1000.0     -1000.0     -1000.0     -1000.0     -1000.0     -1000.0    
      -1000.0     -1000.0     -1000.0     -1000.0     -1000.0     -1000.0     -1000.0     -1000.0     -1000.0     -1000.0    
      -1000.0     -1000.0     -1000.0     -1000.0     -1000.0     -1000.0     -1000.0     -1000.0     -1000.0     -1000.0    
      -1000.0     -1000.0     -1000.0     -1000.0     -1000.0     -1000.0     -1000.0     -1000.0     -1000.0     -1000.0    
      -1000.0     -1000.0     -1000.0     -1000.0     -1000.0     -1000.0     -1000.0     -1000.0     -1000.0     -1000.0    
      -1000.0     -1000.0     -1000.0     -1000.0     -1000.0     -1000.0     -1000.0     -1000.0     -1000.0     -1000.0    
      -1000.0     -1000.0     -1000.0     -1000.0     -1000.0     -1000.0     -1000.0     -1000.0     -1000.0     -1000.0    
      -1000.0     -1000.0     -1000.0     -1000.0     -1000.0     -1000.0     -1000.0     -1000.0     -1000.0     -1000.0    
      -1000.0     -1000.0     -1000.0     -1000.0     -1000.0     -1000.0     -1000.0     -1000.0     -1000.0     -1000.0    
      -1000.0     -1000.0     -1000.0     -1000.0     -1000.0     -1000.0     -1000.0     -1000.0     -1000.0     -1000.0    
      -1000.0     -1000.0     -1000.0     -1000.0     -1000.0     -1000.0     -1000.0     -1000.0     -1000.0     -1000.0    
      -1000.0     -1000.0     -1000.0     -1000.0     -1000.0     -1000.0     -1000.0     -1000.0     -1000.0     -1000.0    
      -1000.0     -1000.0     -1000.0     -1000.0     -1000.0     -1000.0     -1000.0     -1000.0     -1000.0     -1000.0    
      -1000.0     -1000.0     -1000.0     -1000.0     -1000.0     -1000.0     -1000.0     -1000.0     -1000.0     -1000.0    
      -1000.0     -1000.0     -1000.0     -1000.0     -1000.0    
  33  -1000.0     -1000.0     -1000.0     -1000.0     -1000.0     -1000.0     -1000.0     -1000.0     -1000.0     -1000.0    
      -1000.0     -1000.0     -1000.0     -1000.0     -1000.0     -1000.0     -1000.0     -1000.0     -1000.0     -1000.0    
      -1000.0     -1000.0     -1000.0     -1000.0     -1000.0     -1000.0     -1000.0     -1000.0     -1000.0     -1000.0    
      -1000.0     -1000.0     -1000.0     -1000.0     -1000.0     -1000.0     -1000.0     -1000.0     -1000.0     -1000.0    
      -1000.0     -1000.0     -1000.0     -1000.0     -1000.0     -1000.0     -1000.0     -1000.0     -1000.0     -1000.0    
      -1000.0     -1000.0     -1000.0     -1000.0     -1000.0     -1000.0     -1000.0     -1000.0     -1000.0     -1000.0    
      -1000.0     -1000.0     -1000.0     -1000.0     -1000.0     -1000.0     -1000.0     -1000.0     -1000.0     -1000.0    
      -1000.0     -1000.0     -1000.0     -1000.0     -1000.0     -1000.0     -1000.0     -1000.0     -1000.0     -1000.0    
      -1000.0     -1000.0     -1000.0     -1000.0     -1000.0     -1000.0     -1000.0     -1000.0     -1000.0     -1000.0    
      -1000.0     -1000.0     -1000.0     -1000.0     -1000.0     -1000.0     -1000.0     -1000.0     -1000.0     -1000.0    
      -1000.0     -1000.0     -1000.0     -1000.0     -1000.0     -1000.0     -1000.0     -1000.0     -1000.0     -1000.0    
      -1000.0     -1000.0     -1000.0     -1000.0     -1000.0     -1000.0     -1000.0     -1000.0     -1000.0     -1000.0    
      -1000.0     -1000.0     -1000.0     -1000.0     -1000.0     -1000.0     -1000.0     -1000.0     -1000.0     -1000.0    
      -1000.0     -1000.0     -1000.0     -1000.0     -1000.0     -1000.0     -1000.0     -1000.0     -1000.0     -1000.0    
      -1000.0     -1000.0     -1000.0     -1000.0     -1000.0    
  34  -1000.0     -1000.0     -1000.0     -1000.0     -1000.0     -1000.0     -1000.0     -1000.0     -1000.0     -1000.0    
      -1000.0     -1000.0     -1000.0     -1000.0     -1000.0     -1000.0     -1000.0     -1000.0     -1000.0     -1000.0    
      -1000.0     -1000.0     -1000.0     -1000.0     -1000.0     -1000.0     -1000.0     -1000.0     -1000.0     -1000.0    
      -1000.0     -1000.0     -1000.0     -1000.0     -1000.0     -1000.0     -1000.0     -1000.0     -1000.0     -1000.0    
      -1000.0     -1000.0     -1000.0     -1000.0     -1000.0     -1000.0     -1000.0     -1000.0     -1000.0     -1000.0    
      -1000.0     -1000.0     -1000.0     -1000.0     -1000.0     -1000.0     -1000.0     -1000.0     -1000.0     -1000.0    
      -1000.0     -1000.0     -1000.0     -1000.0     -1000.0     -1000.0     -1000.0     -1000.0     -1000.0     -1000.0    
      -1000.0     -1000.0     -1000.0     -1000.0     -1000.0     -1000.0     -1000.0     -1000.0     -1000.0     -1000.0    
      -1000.0     -1000.0     -1000.0     -1000.0     -1000.0     -1000.0     -1000.0     -1000.0     -1000.0     -1000.0    
      -1000.0     -1000.0     -1000.0     -1000.0     -1000.0     -1000.0     -1000.0     -1000.0     -1000.0     -1000.0    
      -1000.0     -1000.0     -1000.0     -1000.0     -1000.0     -1000.0     -1000.0     -1000.0     -1000.0     -1000.0    
      -1000.0     -1000.0     -1000.0     -1000.0     -1000.0     -1000.0     -1000.0     -1000.0     -1000.0     -1000.0    
      -1000.0     -1000.0     -1000.0     -1000.0     -1000.0     -1000.0     -1000.0     -1000.0     -1000.0     -1000.0    
      -1000.0     -1000.0     -1000.0     -1000.0     -1000.0     -1000.0     -1000.0     -1000.0     -1000.0     -1000.0    
      -1000.0     -1000.0     -1000.0     -1000.0     -1000.0    
  35  -1000.0     -1000.0     -1000.0     -1000.0     -1000.0     -1000.0     -1000.0     -1000.0     -1000.0     -1000.0    
      -1000.0     -1000.0     -1000.0     -1000.0     -1000.0     -1000.0     -1000.0     -1000.0     -1000.0     -1000.0    
      -1000.0     -1000.0     -1000.0     -1000.0     -1000.0     -1000.0     -1000.0     -1000.0     -1000.0     -1000.0    
      -1000.0     -1000.0     -1000.0     -1000.0     -1000.0     -1000.0     -1000.0     -1000.0     -1000.0     -1000.0    
      -1000.0     -1000.0     -1000.0     -1000.0     -1000.0     -1000.0     -1000.0     -1000.0     -1000.0     -1000.0    
      -1000.0     -1000.0     -1000.0     -1000.0     -1000.0     -1000.0     -1000.0     -1000.0     -1000.0     -1000.0    
      -1000.0     -1000.0     -1000.0     -1000.0     -1000.0     -1000.0     -1000.0     -1000.0     -1000.0     -1000.0    
      -1000.0     -1000.0     -1000.0     -1000.0     -1000.0     -1000.0     -1000.0     -1000.0     -1000.0     -1000.0    
      -1000.0     -1000.0     -1000.0     -1000.0     -1000.0     -1000.0     -1000.0     -1000.0     -1000.0     -1000.0    
      -1000.0     -1000.0     -1000.0     -1000.0     -1000.0     -1000.0     -1000.0     -1000.0     -1000.0     -1000.0    
      -1000.0     -1000.0     -1000.0     -1000.0     -1000.0     -1000.0     -1000.0     -1000.0     -1000.0     -1000.0    
      -1000.0     -1000.0     -1000.0     -1000.0     -1000.0     -1000.0     -1000.0     -1000.0     -1000.0     -1000.0    
      -1000.0     -1000.0     -1000.0     -1000.0     -1000.0     -1000.0     -1000.0     -1000.0     -1000.0     -1000.0    
      -1000.0     -1000.0     -1000.0     -1000.0     -1000.0     -1000.0     -1000.0     -1000.0     -1000.0     -1000.0    
      -1000.0     -1000.0     -1000.0     -1000.0     -1000.0    
  36  -1000.0     -1000.0     -1000.0     -1000.0     -1000.0     -1000.0     -1000.0     -1000.0     -1000.0     -1000.0    
      -1000.0     -1000.0     -1000.0     -1000.0     -1000.0     -1000.0     -1000.0     -1000.0     -1000.0     -1000.0    
      -1000.0     -1000.0     -1000.0     -1000.0     -1000.0     -1000.0     -1000.0     -1000.0     -1000.0     -1000.0    
      -1000.0     -1000.0     -1000.0     -1000.0     -1000.0     -1000.0     -1000.0     -1000.0     -1000.0     -1000.0    
      -1000.0     -1000.0     -1000.0     -1000.0     -1000.0     -1000.0     -1000.0     -1000.0     -1000.0     -1000.0    
      -1000.0     -1000.0     -1000.0     -1000.0     -1000.0     -1000.0     -1000.0     -1000.0     -1000.0     -1000.0    
      -1000.0     -1000.0     -1000.0     -1000.0     -1000.0     -1000.0     -1000.0     -1000.0     -1000.0     -1000.0    
      -1000.0     -1000.0     -1000.0     -1000.0     -1000.0     -1000.0     -1000.0     -1000.0     -1000.0     -1000.0    
      -1000.0     -1000.0     -1000.0     -1000.0     -1000.0     -1000.0     -1000.0     -1000.0     -1000.0     -1000.0    
      -1000.0     -1000.0     -1000.0     -1000.0     -1000.0     -1000.0     -1000.0     -1000.0     -1000.0     -1000.0    
      -1000.0     -1000.0     -1000.0     -1000.0     -1000.0     -1000.0     -1000.0     -1000.0     -1000.0     -1000.0    
      -1000.0     -1000.0     -1000.0     -1000.0     -1000.0     -1000.0     -1000.0     -1000.0     -1000.0     -1000.0    
      -1000.0     -1000.0     -1000.0     -1000.0     -1000.0     -1000.0     -1000.0     -1000.0     -1000.0     -1000.0    
      -1000.0     -1000.0     -1000.0     -1000.0     -1000.0     -1000.0     -1000.0     -1000.0     -1000.0     -1000.0    
      -1000.0     -1000.0     -1000.0     -1000.0     -1000.0    
  37  -1000.0     -1000.0     -1000.0     -1000.0     -1000.0     -1000.0     -1000.0     -1000.0     -1000.0     -1000.0    
      -1000.0     -1000.0     -1000.0     -1000.0     -1000.0     -1000.0     -1000.0     -1000.0     -1000.0     -1000.0    
      -1000.0     -1000.0     -1000.0     -1000.0     -1000.0     -1000.0     -1000.0     -1000.0     -1000.0     -1000.0    
      -1000.0     -1000.0     -1000.0     -1000.0     -1000.0     -1000.0     -1000.0     -1000.0     -1000.0     -1000.0    
      -1000.0     -1000.0     -1000.0     -1000.0     -1000.0     -1000.0     -1000.0     -1000.0     -1000.0     -1000.0    
      -1000.0     -1000.0     -1000.0     -1000.0     -1000.0     -1000.0     -1000.0     -1000.0     -1000.0     -1000.0    
      -1000.0     -1000.0     -1000.0     -1000.0     -1000.0     -1000.0     -1000.0     -1000.0     -1000.0     -1000.0    
      -1000.0     -1000.0     -1000.0     -1000.0     -1000.0     -1000.0     -1000.0     -1000.0     -1000.0     -1000.0    
      -1000.0     -1000.0     -1000.0     -1000.0     -1000.0     -1000.0     -1000.0     -1000.0     -1000.0     -1000.0    
      -1000.0     -1000.0     -1000.0     -1000.0     -1000.0     -1000.0     -1000.0     -1000.0     -1000.0     -1000.0    
      -1000.0     -1000.0     -1000.0     -1000.0     -1000.0     -1000.0     -1000.0     -1000.0     -1000.0     -1000.0    
      -1000.0     -1000.0     -1000.0     -1000.0     -1000.0     -1000.0     -1000.0     -1000.0     -1000.0     -1000.0    
      -1000.0     -1000.0     -1000.0     -1000.0     -1000.0     -1000.0     -1000.0     -1000.0     -1000.0     -1000.0    
      -1000.0     -1000.0     -1000.0     -1000.0     -1000.0     -1000.0     -1000.0     -1000.0     -1000.0     -1000.0    
      -1000.0     -1000.0     -1000.0     -1000.0     -1000.0    
  38  -1000.0     -1000.0     -1000.0     -1000.0     -1000.0     -1000.0     -1000.0     -1000.0     -1000.0     -1000.0    
      -1000.0     -1000.0     -1000.0     -1000.0     -1000.0     -1000.0     -1000.0     -1000.0     -1000.0     -1000.0    
      -1000.0     -1000.0     -1000.0     -1000.0     -1000.0     -1000.0     -1000.0     -1000.0     -1000.0     -1000.0    
      -1000.0     -1000.0     -1000.0     -1000.0     -1000.0     -1000.0     -1000.0     -1000.0     -1000.0     -1000.0    
      -1000.0     -1000.0     -1000.0     -1000.0     -1000.0     -1000.0     -1000.0     -1000.0     -1000.0     -1000.0    
      -1000.0     -1000.0     -1000.0     -1000.0     -1000.0     -1000.0     -1000.0     -1000.0     -1000.0     -1000.0    
      -1000.0     -1000.0     -1000.0     -1000.0     -1000.0     -1000.0     -1000.0     -1000.0     -1000.0     -1000.0    
      -1000.0     -1000.0     -1000.0     -1000.0     -1000.0     -1000.0     -1000.0     -1000.0     -1000.0     -1000.0    
      -1000.0     -1000.0     -1000.0     -1000.0     -1000.0     -1000.0     -1000.0     -1000.0     -1000.0     -1000.0    
      -1000.0     -1000.0     -1000.0     -1000.0     -1000.0     -1000.0     -1000.0     -1000.0     -1000.0     -1000.0    
      -1000.0     -1000.0     -1000.0     -1000.0     -1000.0     -1000.0     -1000.0     -1000.0     -1000.0     -1000.0    
      -1000.0     -1000.0     -1000.0     -1000.0     -1000.0     -1000.0     -1000.0     -1000.0     -1000.0     -1000.0    
      -1000.0     -1000.0     -1000.0     -1000.0     -1000.0     -1000.0     -1000.0     -1000.0     -1000.0     -1000.0    
      -1000.0     -1000.0     -1000.0     -1000.0     -1000.0     -1000.0     -1000.0     -1000.0     -1000.0     -1000.0    
      -1000.0     -1000.0     -1000.0     -1000.0     -1000.0    
  39  -1000.0     -1000.0     -1000.0     -1000.0     -1000.0     -1000.0     -1000.0     -1000.0     -1000.0     -1000.0    
      -1000.0     -1000.0     -1000.0     -1000.0     -1000.0     -1000.0     -1000.0     -1000.0     -1000.0     -1000.0    
      -1000.0     -1000.0     -1000.0     -1000.0     -1000.0     -1000.0     -1000.0     -1000.0     -1000.0     -1000.0    
      -1000.0     -1000.0     -1000.0     -1000.0     -1000.0     -1000.0     -1000.0     -1000.0     -1000.0     -1000.0    
      -1000.0     -1000.0     -1000.0     -1000.0     -1000.0     -1000.0     -1000.0     -1000.0     -1000.0     -1000.0    
      -1000.0     -1000.0     -1000.0     -1000.0     -1000.0     -1000.0     -1000.0     -1000.0     -1000.0     -1000.0    
      -1000.0     -1000.0     -1000.0     -1000.0     -1000.0     -1000.0     -1000.0     -1000.0     -1000.0     -1000.0    
      -1000.0     -1000.0     -1000.0     -1000.0     -1000.0     -1000.0     -1000.0     -1000.0     -1000.0     -1000.0    
      -1000.0     -1000.0     -1000.0     -1000.0     -1000.0     -1000.0     -1000.0     -1000.0     -1000.0     -1000.0    
      -1000.0     -1000.0     -1000.0     -1000.0     -1000.0     -1000.0     -1000.0     -1000.0     -1000.0     -1000.0    
      -1000.0     -1000.0     -1000.0     -1000.0     -1000.0     -1000.0     -1000.0     -1000.0     -1000.0     -1000.0    
      -1000.0     -1000.0     -1000.0     -1000.0     -1000.0     -1000.0     -1000.0     -1000.0     -1000.0     -1000.0    
      -1000.0     -1000.0     -1000.0     -1000.0     -1000.0     -1000.0     -1000.0     -1000.0     -1000.0     -1000.0    
[...]
      -1000.0       19.39       19.08       18.79       18.49       18.16       17.81       17.42       17.00       16.56    
        16.09       15.58       15.04       14.47       13.89       13.29       12.70       12.12       11.57       11.04    
        10.54       10.08       9.657       9.274       8.928       8.617       8.338       8.088       7.863       7.662    
        7.481       7.317       7.168       7.033       6.910       6.798       6.694       6.599       6.513       6.432    
        6.358       6.289       6.225       6.165       6.109       6.056       6.006       5.958       5.913       5.870    
        5.830       5.792       5.755       5.720       5.687       5.655       5.625       5.596       5.568       5.543    
        5.518       5.495       5.473       5.451       5.430       5.410       5.392       5.374       5.357       5.342    
        5.328       5.315       5.304       5.297       5.289       5.286       5.286       5.293       5.301       5.315    
        5.323       5.331     -1000.0     -1000.0     -1000.0     -1000.0     -1000.0     -1000.0     -1000.0     -1000.0    
      -1000.0     -1000.0     -1000.0     -1000.0     -1000.0     -1000.0     -1000.0     -1000.0     -1000.0     -1000.0    
      -1000.0     -1000.0     -1000.0     -1000.0     -1000.0     -1000.0     -1000.0     -1000.0     -1000.0     -1000.0    
      -1000.0     -1000.0     -1000.0     -1000.0     -1000.0    
 242  -1000.0     -1000.0     -1000.0     -1000.0     -1000.0     -1000.0     -1000.0     -1000.0     -1000.0     -1000.0    
      -1000.0     -1000.0     -1000.0     -1000.0     -1000.0     -1000.0     -1000.0     -1000.0     -1000.0     -1000.0    
      -1000.0     -1000.0     -1000.0     -1000.0     -1000.0     -1000.0     -1000.0     -1000.0     -1000.0     -1000.0    
      -1000.0     -1000.0       18.68       18.49       18.22       17.90       17.54       17.14       16.71       16.25    
        15.75       15.20       14.63       14.02       13.39       12.75       12.11       11.48       10.87       10.30    
        9.770       9.286       8.850       8.459       8.110       7.801       7.528       7.286       7.071       6.879    
        6.708       6.554       6.415       6.289       6.175       6.071       5.976       5.889       5.809       5.736    
        5.667       5.605       5.546       5.492       5.440       5.392       5.347       5.304       5.263       5.225    
        5.188       5.154       5.121       5.090       5.060       5.032       5.005       4.979       4.955       4.931    
        4.909       4.888       4.868       4.849       4.830       4.812       4.795       4.780       4.765       4.753    
        4.743       4.733       4.726       4.722       4.719       4.721       4.727       4.742       4.762       4.781    
        4.798       4.806     -1000.0     -1000.0     -1000.0     -1000.0     -1000.0     -1000.0     -1000.0     -1000.0    
      -1000.0     -1000.0     -1000.0     -1000.0     -1000.0     -1000.0     -1000.0     -1000.0     -1000.0     -1000.0    
      -1000.0     -1000.0     -1000.0     -1000.0     -1000.0     -1000.0     -1000.0     -1000.0     -1000.0     -1000.0    
      -1000.0     -1000.0     -1000.0     -1000.0     -1000.0    
 243  -1000.0     -1000.0     -1000.0     -1000.0     -1000.0     -1000.0     -1000.0     -1000.0     -1000.0     -1000.0    
      -1000.0     -1000.0     -1000.0     -1000.0     -1000.0     -1000.0     -1000.0     -1000.0     -1000.0     -1000.0    
      -1000.0     -1000.0     -1000.0     -1000.0     -1000.0     -1000.0     -1000.0     -1000.0     -1000.0     -1000.0    
      -1000.0     -1000.0       18.47       18.25       18.00       17.67       17.30       16.89       16.44       15.96    
        15.42       14.85       14.23       13.58       12.90       12.20       11.50       10.81       10.14       9.513    
        8.944       8.437       7.989       7.595       7.250       6.949       6.687       6.457       6.255       6.076    
        5.917       5.775       5.648       5.533       5.430       5.336       5.250       5.171       5.099       5.033    
        4.972       4.915       4.863       4.814       4.769       4.725       4.685       4.647       4.611       4.577    
        4.545       4.514       4.485       4.457       4.431       4.407       4.383       4.361       4.339       4.318    
        4.299       4.281       4.263       4.246       4.228       4.212       4.197       4.184       4.172       4.162    
        4.154       4.149       4.145       4.144       4.145       4.149       4.161       4.182       4.206       4.231    
        4.260       4.270     -1000.0     -1000.0     -1000.0     -1000.0     -1000.0     -1000.0     -1000.0     -1000.0    
      -1000.0     -1000.0     -1000.0     -1000.0     -1000.0     -1000.0     -1000.0     -1000.0     -1000.0     -1000.0    
      -1000.0     -1000.0     -1000.0     -1000.0     -1000.0     -1000.0     -1000.0     -1000.0     -1000.0     -1000.0    
      -1000.0     -1000.0     -1000.0     -1000.0     -1000.0    
 244  -1000.0     -1000.0     -1000.0     -1000.0     -1000.0     -1000.0     -1000.0     -1000.0     -1000.0     -1000.0    
      -1000.0     -1000.0     -1000.0     -1000.0     -1000.0     -1000.0     -1000.0     -1000.0     -1000.0     -1000.0    
      -1000.0     -1000.0     -1000.0     -1000.0     -1000.0     -1000.0     -1000.0     -1000.0     -1000.0     -1000.0    
      -1000.0     -1000.0     -1000.0       18.05       17.84       17.47       17.10       16.68       16.19       15.68    
        15.12       14.49       13.84       13.15       12.41       11.65       10.87       10.10       9.349       8.661    
        8.051       7.522       7.067       6.678       6.344       6.058       5.813       5.600       5.415       5.253    
        5.110       4.982       4.868       4.766       4.675       4.591       4.515       4.446       4.383       4.325    
        4.272       4.222       4.176       4.133       4.094       4.056       4.021       3.987       3.956       3.927    
        3.899       3.873       3.848       3.824       3.802       3.780       3.760       3.741       3.722       3.704    
        3.687       3.671       3.655       3.639       3.625       3.612       3.599       3.588       3.578       3.571    
        3.565       3.561       3.560       3.562       3.567       3.576       3.593       3.616       3.641       3.670    
        3.702       3.723     -1000.0     -1000.0     -1000.0     -1000.0     -1000.0     -1000.0     -1000.0     -1000.0    
      -1000.0     -1000.0     -1000.0     -1000.0     -1000.0     -1000.0     -1000.0     -1000.0     -1000.0     -1000.0    
      -1000.0     -1000.0     -1000.0     -1000.0     -1000.0     -1000.0     -1000.0     -1000.0     -1000.0     -1000.0    
      -1000.0     -1000.0     -1000.0     -1000.0     -1000.0    
 245  -1000.0     -1000.0     -1000.0     -1000.0     -1000.0     -1000.0     -1000.0     -1000.0     -1000.0     -1000.0    
      -1000.0     -1000.0     -1000.0     -1000.0     -1000.0     -1000.0     -1000.0     -1000.0     -1000.0     -1000.0    
      -1000.0     -1000.0     -1000.0     -1000.0     -1000.0     -1000.0     -1000.0     -1000.0     -1000.0     -1000.0    
      -1000.0     -1000.0     -1000.0     -1000.0     -1000.0       17.22       16.95       16.53       15.94       15.42    
        14.83       14.16       13.48       12.74       11.93       11.10       10.23       9.352       8.493       7.723    
        7.070       6.526       6.076       5.702       5.389       5.127       4.906       4.717       4.553       4.411    
        4.286       4.175       4.077       3.989       3.910       3.839       3.774       3.715       3.662       3.612    
        3.567       3.525       3.486       3.449       3.416       3.384       3.354       3.326       3.300       3.275    
        3.252       3.230       3.209       3.189       3.171       3.154       3.136       3.120       3.104       3.089    
        3.075       3.061       3.046       3.033       3.022       3.010       3.000       2.991       2.984       2.978    
        2.974       2.972       2.972       2.975       2.984       2.998       3.018       3.041       3.076       3.118    
        3.156       3.187     -1000.0     -1000.0     -1000.0     -1000.0     -1000.0     -1000.0     -1000.0     -1000.0    
      -1000.0     -1000.0     -1000.0     -1000.0     -1000.0     -1000.0     -1000.0     -1000.0     -1000.0     -1000.0    
      -1000.0     -1000.0     -1000.0     -1000.0     -1000.0     -1000.0     -1000.0     -1000.0     -1000.0     -1000.0    
      -1000.0     -1000.0     -1000.0     -1000.0     -1000.0    
 246  -1000.0     -1000.0     -1000.0     -1000.0     -1000.0     -1000.0     -1000.0     -1000.0     -1000.0     -1000.0    
      -1000.0     -1000.0     -1000.0     -1000.0     -1000.0     -1000.0     -1000.0     -1000.0     -1000.0     -1000.0    
      -1000.0     -1000.0     -1000.0     -1000.0     -1000.0     -1000.0     -1000.0     -1000.0     -1000.0     -1000.0    
      -1000.0     -1000.0     -1000.0     -1000.0     -1000.0     -1000.0     -1000.0     -1000.0       15.57       15.21    
        14.63       13.83       13.14       12.36       11.47       10.57       9.601       8.569       7.530       6.657    
        5.970       5.433       5.007       4.665       4.386       4.158       3.968       3.808       3.671       3.552    
        3.448       3.356       3.275       3.202       3.137       3.079       3.026       2.979       2.935       2.895    
        2.859       2.825       2.793       2.763       2.735       2.710       2.686       2.663       2.642       2.622    
        2.604       2.586       2.569       2.553       2.538       2.524       2.510       2.497       2.485       2.473    
        2.461       2.449       2.438       2.427       2.418       2.409       2.401       2.395       2.389       2.384    
        2.382       2.381       2.383       2.386       2.395       2.410       2.430       2.458       2.506       2.571    
        2.638       2.686     -1000.0     -1000.0     -1000.0     -1000.0     -1000.0     -1000.0     -1000.0     -1000.0    
      -1000.0     -1000.0     -1000.0     -1000.0     -1000.0     -1000.0     -1000.0     -1000.0     -1000.0     -1000.0    
      -1000.0     -1000.0     -1000.0     -1000.0     -1000.0     -1000.0     -1000.0     -1000.0     -1000.0     -1000.0    
      -1000.0     -1000.0     -1000.0     -1000.0     -1000.0    
 247  -1000.0     -1000.0     -1000.0     -1000.0     -1000.0     -1000.0     -1000.0     -1000.0     -1000.0     -1000.0    
      -1000.0     -1000.0     -1000.0     -1000.0     -1000.0     -1000.0     -1000.0     -1000.0     -1000.0     -1000.0    
      -1000.0     -1000.0     -1000.0     -1000.0     -1000.0     -1000.0     -1000.0     -1000.0     -1000.0     -1000.0    
      -1000.0     -1000.0     -1000.0     -1000.0     -1000.0     -1000.0     -1000.0     -1000.0     -1000.0     -1000.0    
      -1000.0       13.35       12.87       12.09       11.00       10.07       9.017       7.770       6.385       5.394    
        4.712       4.222       3.853       3.565       3.337       3.153       3.003       2.877       2.770       2.677    
        2.597       2.526       2.464       2.408       2.358       2.313       2.274       2.238       2.205       2.176    
        2.148       2.121       2.097       2.074       2.053       2.034       2.016       1.999       1.983       1.968    
        1.955       1.941       1.928       1.916       1.904       1.893       1.883       1.874       1.864       1.855    
        1.846       1.837       1.829       1.821       1.814       1.808       1.802       1.797       1.793       1.790    
        1.788       1.788       1.790       1.794       1.801       1.813       1.832       1.863       1.916       2.003    
        2.111       2.232     -1000.0     -1000.0     -1000.0     -1000.0     -1000.0     -1000.0     -1000.0     -1000.0    
      -1000.0     -1000.0     -1000.0     -1000.0     -1000.0     -1000.0     -1000.0     -1000.0     -1000.0     -1000.0    
      -1000.0     -1000.0     -1000.0     -1000.0     -1000.0     -1000.0     -1000.0     -1000.0     -1000.0     -1000.0    
      -1000.0     -1000.0     -1000.0     -1000.0     -1000.0    
 248  -1000.0     -1000.0     -1000.0     -1000.0     -1000.0     -1000.0     -1000.0     -1000.0     -1000.0     -1000.0    
      -1000.0     -1000.0     -1000.0     -1000.0     -1000.0     -1000.0     -1000.0     -1000.0     -1000.0     -1000.0    
      -1000.0     -1000.0     -1000.0     -1000.0     -1000.0     -1000.0     -1000.0     -1000.0     -1000.0     -1000.0    
      -1000.0     -1000.0     -1000.0     -1000.0     -1000.0     -1000.0     -1000.0     -1000.0     -1000.0     -1000.0    
      -1000.0     -1000.0     -1000.0     -1000.0       10.35       9.679       8.601       7.078       4.828       3.808    
        3.255       2.885       2.616       2.410       2.249       2.120       2.015       1.928       1.855       1.792    
        1.737       1.689       1.646       1.608       1.574       1.544       1.518       1.495       1.473       1.453    
        1.434       1.416       1.399       1.384       1.370       1.357       1.345       1.334       1.323       1.313    
        1.304       1.295       1.286       1.278       1.270       1.263       1.256       1.249       1.243       1.237    
        1.231       1.225       1.220       1.215       1.211       1.207       1.203       1.199       1.197       1.195    
        1.193       1.194       1.195       1.198       1.202       1.212       1.227       1.255       1.301       1.388    
        1.536       1.892     -1000.0     -1000.0     -1000.0     -1000.0     -1000.0     -1000.0     -1000.0     -1000.0    
      -1000.0     -1000.0     -1000.0     -1000.0     -1000.0     -1000.0     -1000.0     -1000.0     -1000.0     -1000.0    
      -1000.0     -1000.0     -1000.0     -1000.0     -1000.0     -1000.0     -1000.0     -1000.0     -1000.0     -1000.0    
      -1000.0     -1000.0     -1000.0     -1000.0     -1000.0    
 249  -1000.0     -1000.0     -1000.0     -1000.0     -1000.0     -1000.0     -1000.0     -1000.0     -1000.0     -1000.0    
      -1000.0     -1000.0     -1000.0     -1000.0     -1000.0     -1000.0     -1000.0     -1000.0     -1000.0     -1000.0    
      -1000.0     -1000.0     -1000.0     -1000.0     -1000.0     -1000.0     -1000.0     -1000.0     -1000.0     -1000.0    
      -1000.0     -1000.0     -1000.0     -1000.0     -1000.0     -1000.0     -1000.0     -1000.0     -1000.0     -1000.0    
      -1000.0     -1000.0     -1000.0     -1000.0     -1000.0     -1000.0     -1000.0     -1000.0       2.015       1.742    
        1.612       1.454       1.320       1.214       1.131       1.066       1.012      0.9674      0.9300      0.8981    
       0.8700      0.8459      0.8242      0.8047      0.7872      0.7725      0.7599      0.7483      0.7374      0.7272    
       0.7174      0.7083      0.7001      0.6925      0.6852      0.6789      0.6733      0.6675      0.6622      0.6571    
       0.6522      0.6476      0.6433      0.6394      0.6356      0.6314      0.6274      0.6246      0.6213      0.6183    
       0.6156      0.6127      0.6101      0.6077      0.6054      0.6035      0.6017      0.6003      0.5988      0.5982    
       0.5977      0.5977      0.5985      0.5991      0.6023      0.6079      0.6156      0.6307      0.6561      0.6916    
       0.7006     -1000.0     -1000.0     -1000.0     -1000.0     -1000.0     -1000.0     -1000.0     -1000.0     -1000.0    
      -1000.0     -1000.0     -1000.0     -1000.0     -1000.0     -1000.0     -1000.0     -1000.0     -1000.0     -1000.0    
      -1000.0     -1000.0     -1000.0     -1000.0     -1000.0     -1000.0     -1000.0     -1000.0     -1000.0     -1000.0    
      -1000.0     -1000.0     -1000.0     -1000.0     -1000.0    
 250    0.000       0.000       0.000       0.000       0.000       0.000       0.000       0.000       0.000       0.000    
        0.000       0.000       0.000       0.000       0.000       0.000       0.000       0.000       0.000       0.000    
        0.000       0.000       0.000       0.000       0.000       0.000       0.000       0.000       0.000       0.000    
        0.000       0.000       0.000       0.000       0.000       0.000       0.000       0.000       0.000       0.000    
        0.000       0.000       0.000       0.000       0.000       0.000       0.000       0.000       0.000       0.000    
        0.000       0.000       0.000       0.000       0.000       0.000       0.000       0.000       0.000       0.000    
        0.000       0.000       0.000       0.000       0.000       0.000       0.000       0.000       0.000       0.000    
        0.000       0.000       0.000       0.000       0.000       0.000       0.000       0.000       0.000       0.000    
        0.000       0.000       0.000       0.000       0.000       0.000       0.000       0.000       0.000       0.000    
        0.000       0.000       0.000       0.000       0.000       0.000       0.000       0.000       0.000       0.000    
        0.000       0.000       0.000       0.000       0.000       0.000       0.000       0.000       0.000       0.000    
        0.000       0.000       0.000       0.000       0.000       0.000       0.000       0.000       0.000       0.000    
        0.000       0.000       0.000       0.000       0.000       0.000       0.000       0.000       0.000       0.000    
        0.000       0.000       0.000       0.000       0.000       0.000       0.000       0.000       0.000       0.000    
        0.000       0.000       0.000       0.000       0.000    

 HEAD WILL BE SAVED ON UNIT   51 AT END OF TIME STEP    1, STRESS PERIOD    1
1
  VOLUMETRIC BUDGET FOR ENTIRE MODEL AT END OF TIME STEP    1, STRESS PERIOD   1
  ------------------------------------------------------------------------------

     CUMULATIVE VOLUMES      L**3       RATES FOR THIS TIME STEP      L**3/T
     ------------------                 ------------------------

           IN:                                      IN:
           ---                                      ---
             STORAGE =           0.0000               STORAGE =           0.0000
       CONSTANT HEAD =           0.0000         CONSTANT HEAD =           0.0000
            RECHARGE =     2665000.0000              RECHARGE =     2665000.0000

            TOTAL IN =     2665000.0000              TOTAL IN =     2665000.0000

          OUT:                                     OUT:
          ----                                     ----
             STORAGE =           0.0000               STORAGE =           0.0000
       CONSTANT HEAD =     2665000.0000         CONSTANT HEAD =     2665000.0000
            RECHARGE =           0.0000              RECHARGE =           0.0000

           TOTAL OUT =     2665000.0000             TOTAL OUT =     2665000.0000

            IN - OUT =           0.0000              IN - OUT =           0.0000

 PERCENT DISCREPANCY =           0.00     PERCENT DISCREPANCY =           0.00






         TIME SUMMARY AT END OF TIME STEP    1 IN STRESS PERIOD    1
                    SECONDS     MINUTES      HOURS       DAYS        YEARS
                    -----------------------------------------------------------
   TIME STEP LENGTH  86400.      1440.0      24.000      1.0000     2.73785E-03
 STRESS PERIOD TIME  86400.      1440.0      24.000      1.0000     2.73785E-03
         TOTAL TIME  86400.      1440.0      24.000      1.0000     2.73785E-03
1

 Run end date and time (yyyy/mm/dd hh:mm:ss): 2022/02/25  7:57:42
 Elapsed run time:  0.383 Seconds

