                                  MODFLOW-2005     
      U.S. GEOLOGICAL SURVEY MODULAR FINITE-DIFFERENCE GROUND-WATER FLOW MODEL
                            VERSION 1.12.00 2/3/2017

 LIST FILE: ocotillo.list
                         UNIT    2

 OPENING ocotillo.dis
 FILE TYPE:DIS   UNIT   11   STATUS:OLD    
 FORMAT:FORMATTED              ACCESS:SEQUENTIAL          

 OPENING ocotillo.bas
 FILE TYPE:BAS6   UNIT   13   STATUS:OLD    
 FORMAT:FORMATTED              ACCESS:SEQUENTIAL          

 OPENING ocotillo.lpf
 FILE TYPE:LPF   UNIT   15   STATUS:OLD    
 FORMAT:FORMATTED              ACCESS:SEQUENTIAL          

 OPENING ocotillo.oc
 FILE TYPE:OC   UNIT   14   STATUS:OLD    
 FORMAT:FORMATTED              ACCESS:SEQUENTIAL          

 OPENING ocotillo.pcg
 FILE TYPE:PCG   UNIT   27   STATUS:OLD    
 FORMAT:FORMATTED              ACCESS:SEQUENTIAL          

 OPENING ocotillo.rch
 FILE TYPE:RCH   UNIT   19   STATUS:OLD    
 FORMAT:FORMATTED              ACCESS:SEQUENTIAL          

 OPENING ocotillo.wel
 FILE TYPE:WEL   UNIT   20   STATUS:OLD    
 FORMAT:FORMATTED              ACCESS:SEQUENTIAL          

 OPENING ocotillo.cbc
 FILE TYPE:DATA(BINARY)   UNIT   53   STATUS:REPLACE
 FORMAT:BINARY                 ACCESS:SEQUENTIAL          

 OPENING ocotillo.hds
 FILE TYPE:DATA(BINARY)   UNIT   51   STATUS:REPLACE
 FORMAT:BINARY                 ACCESS:SEQUENTIAL          

 BAS -- BASIC PACKAGE, VERSION 7, 5/2/2005 INPUT READ FROM UNIT   13
 
 MODFLOW was compiled using mixed precision
 Precision of REAL variables:           6
 Precision of DOUBLE PRECISION variables:          15

 DISCRETIZATION INPUT DATA READ FROM UNIT   11
 # DIS package for  MODFLOW-2005, generated by Flopy.
    2 LAYERS       250 ROWS       145 COLUMNS
    1 STRESS PERIOD(S) IN SIMULATION
 MODEL TIME UNIT IS DAYS
 MODEL LENGTH UNIT IS METERS
  Confining bed flag for each layer:
   0   0

                     DELR =   1000.00    

                     DELC =   1000.00    



           TOP ELEVATION OF LAYER 1
 READING ON UNIT   11 WITH FORMAT: (145E15.6)          



             MODEL LAYER BOTTOM EL. FOR LAYER   1
 READING ON UNIT   11 WITH FORMAT: (145E15.6)          



             MODEL LAYER BOTTOM EL. FOR LAYER   2
 READING ON UNIT   11 WITH FORMAT: (145E15.6)          


 STRESS PERIOD     LENGTH       TIME STEPS     MULTIPLIER FOR DELT    SS FLAG
 ----------------------------------------------------------------------------
        1         1.000000          1                    1.000         SS

 STEADY-STATE SIMULATION



 
 # BAS6 package for  MODFLOW-2005, generated by Flopy.                           
 THE FREE FORMAT OPTION HAS BEEN SELECTED



                     BOUNDARY ARRAY FOR LAYER   1
 READING ON UNIT   13 WITH FORMAT: (145I10)            



                     BOUNDARY ARRAY FOR LAYER   2
 READING ON UNIT   13 WITH FORMAT: (145I10)            

 AQUIFER HEAD WILL BE SET TO  -999.99     AT ALL NO-FLOW NODES (IBOUND=0).



                       INITIAL HEAD FOR LAYER   1
 READING ON UNIT   13 WITH FORMAT: (145E15.6)          



                       INITIAL HEAD FOR LAYER   2
 READING ON UNIT   13 WITH FORMAT: (145E15.6)          
 # OC package for  MODFLOW-2005, generated by Flopy.

 OUTPUT CONTROL IS SPECIFIED ONLY AT TIME STEPS FOR WHICH OUTPUT IS DESIRED
 COMPACT CELL-BY-CELL BUDGET FILES WILL BE WRITTEN
 AUXILIARY DATA WILL BE SAVED IN CELL-BY-CELL BUDGET FILES
 HEAD PRINT FORMAT CODE IS   0    DRAWDOWN PRINT FORMAT CODE IS   0
 HEADS WILL BE SAVED ON UNIT   51    DRAWDOWNS WILL BE SAVED ON UNIT    0

 LPF -- LAYER-PROPERTY FLOW PACKAGE, VERSION 7, 5/2/2005
         INPUT READ FROM UNIT   15
 # LPF package for  MODFLOW-2005, generated by Flopy.
 CELL-BY-CELL FLOWS WILL BE SAVED ON UNIT   53
 HEAD AT CELLS THAT CONVERT TO DRY= -1.00000E+30
 No named parameters

   LAYER FLAGS:
 LAYER       LAYTYP        LAYAVG         CHANI        LAYVKA        LAYWET
 ---------------------------------------------------------------------------
    1             1             0     0.000E+00             0             0
    2             0             0     0.000E+00             0             0

   INTERPRETATION OF LAYER FLAGS:
                        INTERBLOCK     HORIZONTAL    DATA IN
         LAYER TYPE   TRANSMISSIVITY   ANISOTROPY   ARRAY VKA   WETTABILITY
 LAYER      (LAYTYP)      (LAYAVG)       (CHANI)      (LAYVKA)      (LAYWET)
 ---------------------------------------------------------------------------
    1   CONVERTIBLE      HARMONIC      VARIABLE    VERTICAL K  NON-WETTABLE
    2      CONFINED      HARMONIC      VARIABLE    VERTICAL K  NON-WETTABLE

 WETTING CAPABILITY IS NOT ACTIVE IN ANY LAYER



              HYD. COND. ALONG ROWS FOR LAYER   1
 READING ON UNIT   15 WITH FORMAT: (145E15.6)          

   HORIZ. ANI. (COL./ROW) =   1.00000     FOR LAYER   1



                VERTICAL HYD. COND. FOR LAYER   1
 READING ON UNIT   15 WITH FORMAT: (145E15.6)          



              HYD. COND. ALONG ROWS FOR LAYER   2
 READING ON UNIT   15 WITH FORMAT: (145E15.6)          

   HORIZ. ANI. (COL./ROW) =   1.00000     FOR LAYER   2



                VERTICAL HYD. COND. FOR LAYER   2
 READING ON UNIT   15 WITH FORMAT: (145E15.6)          

 WEL -- WELL PACKAGE, VERSION 7, 5/2/2005 INPUT READ FROM UNIT   20
 # WEL package for  MODFLOW-2005, generated by Flopy.
 No named parameters
 MAXIMUM OF      1 ACTIVE WELLS AT ONE TIME


     0 Well parameters

 RCH -- RECHARGE PACKAGE, VERSION 7, 5/2/2005 INPUT READ FROM UNIT   19
 # RCH package for  MODFLOW-2005, generated by Flopy.
 No named parameters
 OPTION 3 -- RECHARGE TO HIGHEST ACTIVE NODE IN EACH VERTICAL COLUMN


     0 Recharge parameters

 PCG -- CONJUGATE-GRADIENT SOLUTION PACKAGE, VERSION 7, 5/2/2005
 # PCG package for  MODFLOW-2005, generated by Flopy.
 MAXIMUM OF     50 CALLS OF SOLUTION ROUTINE
 MAXIMUM OF     30 INTERNAL ITERATIONS PER CALL TO SOLUTION ROUTINE
 MATRIX PRECONDITIONING TYPE :    1



                                    SOLUTION BY THE CONJUGATE-GRADIENT METHOD
                                   -------------------------------------------
                    MAXIMUM NUMBER OF CALLS TO PCG ROUTINE =       50
                        MAXIMUM ITERATIONS PER CALL TO PCG =       30
                               MATRIX PRECONDITIONING TYPE =        1
        RELAXATION FACTOR (ONLY USED WITH PRECOND. TYPE 1) =    0.10000E+01
 PARAMETER OF POLYNOMIAL PRECOND. = 2 (2) OR IS CALCULATED :        0
                         HEAD CHANGE CRITERION FOR CLOSURE =    0.10000E-04
                     RESIDUAL CHANGE CRITERION FOR CLOSURE =    0.10000E-04
            PCG HEAD AND RESIDUAL CHANGE PRINTOUT INTERVAL =      999
     PRINTING FROM SOLVER IS LIMITED(1) OR SUPPRESSED (>1) =        3
                            STEADY-STATE DAMPING PARAMETER =    0.10000E+01
                               TRANSIENT DAMPING PARAMETER =    0.10000E+01
1
                            STRESS PERIOD NO.    1, LENGTH =   1.000000    
                            -----------------------------------------------

                              NUMBER OF TIME STEPS =     1

                               MULTIPLIER FOR DELT =     1.000

                            INITIAL TIME STEP SIZE =   1.000000    

 WELL NO.  LAYER   ROW   COL   STRESS RATE         
 --------------------------------------------------
      1      1    151     66     -0.1500E+05

      1 WELL 



                           RECHARGE
 READING ON UNIT   19 WITH FORMAT: (145E15.6)          
 
 SOLVING FOR HEAD 

 MAXIMUM HEAD CHANGE FOR EACH ITERATION (1 INDICATES THE FIRST INNER ITERATION):

    HEAD CHANGE    HEAD CHANGE    HEAD CHANGE    HEAD CHANGE    HEAD CHANGE 
   LAYER,ROW,COL  LAYER,ROW,COL  LAYER,ROW,COL  LAYER,ROW,COL  LAYER,ROW,COL
 ---------------------------------------------------------------------------
  1   3.403      0   2.689      0   3.961      0   2.522      0   3.323    
   (  1, 57,106)  (  1,122,111)  (  1, 57,106)  (  2,111,110)  (  1, 93,108)
  0   4.120      0   7.373      0   10.19      0   11.80      0   13.64    
   (  1, 97,104)  (  1,100,101)  (  1, 98,103)  (  1, 96,105)  (  1, 98,103)
  0   8.759      0   7.861      0   8.982      0   7.979      0   6.130    
   (  1, 97,104)  (  1, 95,106)  (  1, 99,102)  (  1, 96,105)  (  1, 96, 42)
  0   4.914      0   3.743      0   4.139      0   2.927      0   1.688    
   (  1,100,101)  (  1, 99,102)  (  1, 93,108)  (  2, 68, 54)  (  1, 96,105)
  0   1.466      0  0.8551      0  0.7670      0  0.8497      0  0.8468    
   (  1, 95,106)  (  1, 96,105)  (  1,129, 98)  (  1,128,100)  (  2,126,103)
  0  0.7073      0  0.6302      0  0.6191      0  0.5981      0  0.5812    
   (  1,122,111)  (  1,123,108)  (  1, 94,107)  (  1, 99,102)  (  1, 94,107)
  1 -0.2912      0 -0.2267      0 -0.3261      0 -0.3835      0 -0.3687    
   (  1,100,101)  (  2,122,110)  (  1,125,105)  (  1,123,109)  (  1,122,111)
  0 -0.2401      0 -0.1638      0 -0.1595      0 -0.1286      0 -0.1511    
   (  1,121,112)  (  1,128,100)  (  1,129, 98)  (  1, 94,107)  (  1, 95,106)
  0 -0.1806      0 -0.1619      0 -0.1839      0 -0.2427      0 -0.2298    
   (  1,129, 98)  (  1,156, 82)  (  1,126,103)  (  2,155, 94)  (  2,162, 69)
  0 -0.1989      0 -0.1766      0 -0.1959      0 -0.1479      0 -0.1255    
   (  2,164, 69)  (  2,171, 64)  (  1, 99,102)  (  1, 98,103)  (  2,232, 25)
  0 -0.2127      0 -0.1834      0 -0.2078      0 -0.2124      0 -0.1528    
   (  1, 98,103)  (  1,122,110)  (  1, 93,108)  (  2, 66, 59)  (  1,100,101)
  0 -0.1966      0 -0.2224      0 -0.2639      0 -0.3902      0 -0.3363    
   (  1, 57,106)  (  1, 66,105)  (  1, 66,105)  (  1, 67,104)  (  1, 58,105)
  1 -0.1295      0 -0.8440E-01  0 -0.6785E-01  0 -0.1009      0  0.8408E-01
   (  1, 57,106)  (  1,126,103)  (  1, 96,105)  (  1, 93,108)  (  1,200, 27)
  0 -0.8770E-01  0 -0.9239E-01  0 -0.7915E-01  0  0.8936E-01  0 -0.9436E-01
   (  1,124,107)  (  1,123,109)  (  1, 57,106)  (  1,226, 24)  (  1, 57,106)
  0 -0.9479E-01  0 -0.7319E-01  0 -0.8339E-01  0 -0.8691E-01  0 -0.1046    
   (  1, 98,103)  (  1, 99,102)  (  1, 95,106)  (  1, 97,104)  (  1,100,101)
  0 -0.9595E-01  0 -0.1001      0 -0.7230E-01  0 -0.7853E-01  0 -0.6825E-01
   (  1, 94,107)  (  1, 98,103)  (  1, 99,102)  (  1, 93,108)  (  2, 69, 73)
  0 -0.6528E-01  0 -0.6300E-01  0 -0.4530E-01  0 -0.4294E-01  0 -0.5329E-01
   (  1, 96,105)  (  1, 95,106)  (  1, 96,105)  (  2, 57,106)  (  2, 67,104)
  0 -0.4994E-01  0 -0.7279E-01  0 -0.5963E-01  0 -0.6984E-01  0 -0.7782E-01
   (  1, 51, 98)  (  1, 66,105)  (  2, 49, 96)  (  1, 94,107)  (  1, 93,108)
  1  0.3122E-01  0 -0.2973E-01  0 -0.3481E-01  0 -0.4689E-01  0 -0.5050E-01
   (  1, 93,108)  (  1, 93,108)  (  1, 94,107)  (  1,123,109)  (  1,128,100)
  0 -0.4423E-01  0 -0.4621E-01  0 -0.3416E-01  0 -0.3170E-01  0 -0.3699E-01
   (  1,126,103)  (  1,122,111)  (  1,129, 98)  (  2,127,102)  (  1, 95,106)
  0 -0.3309E-01  0 -0.3395E-01  0 -0.2911E-01  0 -0.3950E-01  0 -0.3991E-01
   (  1,129, 98)  (  1,154, 87)  (  2,154, 94)  (  2,154, 96)  (  1, 98,103)
  0 -0.2969E-01  0 -0.2578E-01  0 -0.4132E-01  0 -0.3380E-01  0 -0.3245E-01
   (  1, 97,104)  (  1, 95,106)  (  1, 99,102)  (  1,100,101)  (  1, 94,107)
  0 -0.3728E-01  0 -0.3751E-01  0 -0.4460E-01  0 -0.4179E-01  0 -0.3053E-01
   (  2,193, 29)  (  2,199, 25)  (  1, 93,108)  (  1, 57,106)  (  2, 64, 56)
  0 -0.4111E-01  0 -0.3816E-01  0 -0.4100E-01  0 -0.4394E-01  0 -0.3927E-01
   (  1, 57,106)  (  1, 95,106)  (  1, 97,104)  (  1, 67,104)  (  1, 97,104)
  1  0.1655E-01  0 -0.1709E-01  0  0.1380E-01  0 -0.1801E-01  0  0.1520E-01
   (  1,126,103)  (  1,126,103)  (  2,126,103)  (  1, 93,108)  (  1,196, 24)
  0 -0.1535E-01  0 -0.1841E-01  0 -0.1538E-01  0 -0.1647E-01  0 -0.1538E-01
   (  1,124,107)  (  1,123,109)  (  1,124,107)  (  1,100,101)  (  1, 57,106)
  0 -0.1548E-01  0 -0.1485E-01  0 -0.1396E-01  0 -0.1764E-01  0 -0.1636E-01
   (  1, 98,103)  (  1, 99,102)  (  1, 95,106)  (  1, 99,102)  (  1, 98,103)
  0 -0.1341E-01  0 -0.1609E-01  0 -0.1257E-01  0 -0.1519E-01  0 -0.1383E-01
   (  1, 94,107)  (  1, 57,106)  (  1,125,105)  (  1, 96,105)  (  1, 95,106)
  0 -0.1394E-01  0 -0.1475E-01  0 -0.1010E-01  0 -0.1097E-01  0 -0.1101E-01
   (  1, 96,105)  (  1, 95,106)  (  1, 94,107)  (  1, 57,106)  (  2, 58,103)
  0 -0.1110E-01  0 -0.1277E-01  0 -0.9100E-02  0 -0.8648E-02  0 -0.1156E-01
   (  2, 55,106)  (  1, 49, 96)  (  2, 49, 96)  (  1, 94,107)  (  1, 93,108)
  1 -0.6030E-02  0 -0.5752E-02  0 -0.6712E-02  0 -0.8719E-02  0 -0.9485E-02
   (  1,123,108)  (  1, 93,108)  (  1, 94,107)  (  1,122,111)  (  1,128,100)
  0 -0.8586E-02  0 -0.9719E-02  0 -0.7133E-02  0 -0.6595E-02  0 -0.7586E-02
   (  1,126,103)  (  1,122,111)  (  1,129, 98)  (  2,127,102)  (  1, 95,106)
  0 -0.6729E-02  0 -0.6328E-02  0 -0.5176E-02  0 -0.6539E-02  0 -0.6606E-02
   (  2,157, 82)  (  1,156, 88)  (  2,155, 95)  (  2,155, 95)  (  1, 98,103)
  0 -0.5424E-02  0 -0.5494E-02  0 -0.8115E-02  0 -0.6474E-02  0 -0.6436E-02
   (  1, 97,104)  (  1, 95,106)  (  1, 99,102)  (  1,100,101)  (  1, 94,107)
  0 -0.7366E-02  0 -0.7609E-02  0 -0.9819E-02  0 -0.7808E-02  0 -0.6440E-02
   (  1, 98,103)  (  1, 95,106)  (  1, 93,108)  (  2, 58, 64)  (  2, 64, 56)
  0 -0.7994E-02  0 -0.6266E-02  0 -0.7499E-02  0 -0.8243E-02  0 -0.8089E-02
   (  1, 57,106)  (  1, 95,106)  (  1, 97,104)  (  1, 94,107)  (  1, 97,104)
  1 -0.3204E-02  0 -0.3237E-02  0  0.2977E-02  0 -0.3606E-02  0  0.2982E-02
   (  1, 99,102)  (  1,126,103)  (  2,126,103)  (  1, 93,108)  (  1,199, 26)
  0  0.2607E-02  0 -0.2969E-02  0 -0.2614E-02  0  0.3013E-02  0  0.2683E-02
   (  2,212, 24)  (  1,125,105)  (  1,126,103)  (  2,204, 30)  (  1,223, 26)
  0 -0.3452E-02  0 -0.3328E-02  0 -0.2540E-02  0 -0.3182E-02  0 -0.2528E-02
   (  1, 98,103)  (  1, 99,102)  (  1, 95,106)  (  1, 99,102)  (  1, 95,106)
  0 -0.3213E-02  0 -0.2970E-02  0 -0.2579E-02  0 -0.2845E-02  0 -0.3202E-02
   (  1, 93,108)  (  1, 98,103)  (  1,100,101)  (  1, 94,107)  (  1, 95,106)
  0 -0.2580E-02  0 -0.3007E-02  0 -0.2458E-02  0 -0.2677E-02  0 -0.2500E-02
   (  1, 96,105)  (  1, 95,106)  (  1, 96,105)  (  1, 57,106)  (  2, 58,105)
  0 -0.2854E-02  0 -0.2560E-02  0 -0.2231E-02  0 -0.1642E-02  0 -0.1615E-02
   (  1, 57,106)  (  1, 58,105)  (  1, 55,106)  (  1, 94,107)  (  1,125,105)
  1 -0.1038E-02  0 -0.8707E-03  0 -0.1399E-02  0 -0.1832E-02  0 -0.1783E-02
   (  1,123,108)  (  1, 93,108)  (  1, 94,107)  (  1,122,111)  (  1,128,100)
  0 -0.1855E-02  0 -0.1685E-02  0 -0.1468E-02  0 -0.1207E-02  0 -0.1588E-02
   (  1,126,103)  (  1,122,111)  (  1,129, 98)  (  1,126,103)  (  1, 95,106)
  0 -0.1306E-02  0 -0.1161E-02  0 -0.9494E-03  0 -0.1169E-02  0 -0.9602E-03
   (  2,157, 82)  (  1,160, 90)  (  2,154, 96)  (  2,155, 95)  (  1, 98,103)
  0 -0.1163E-02  0 -0.1108E-02  0 -0.1554E-02  0 -0.1357E-02  0 -0.1153E-02
   (  1, 97,104)  (  1, 95,106)  (  1, 99,102)  (  1, 98,103)  (  1, 94,107)
  0 -0.1378E-02  0 -0.1338E-02  0 -0.1646E-02  0 -0.1387E-02  0 -0.1737E-02
   (  2,199, 32)  (  2,199, 25)  (  1, 57,106)  (  2, 58, 66)  (  1, 57,106)
  0 -0.1575E-02  0 -0.1694E-02  0 -0.1587E-02  0 -0.1871E-02  0 -0.1800E-02
   (  1,100,101)  (  1, 55,106)  (  1, 96,105)  (  1, 93,108)  (  1, 96,105)
  1 -0.6913E-03  0 -0.6289E-03  0  0.6320E-03  0 -0.6849E-03  0  0.5655E-03
   (  1, 99,102)  (  1,126,103)  (  2,126,103)  (  1, 93,108)  (  1,199, 26)
  0  0.4964E-03  0 -0.5319E-03  0 -0.4821E-03  0  0.5366E-03  0 -0.5037E-03
   (  2,212, 24)  (  1,125,104)  (  1,126,103)  (  2,204, 30)  (  1, 95,106)
  0 -0.7520E-03  0 -0.5937E-03  0 -0.4672E-03  0 -0.6244E-03  0 -0.6790E-03
   (  1, 98,103)  (  1, 99,102)  (  1, 95,106)  (  1, 99,102)  (  1,100,101)
  0 -0.6323E-03  0 -0.5353E-03  0 -0.5266E-03  0 -0.5734E-03  0 -0.5659E-03
   (  1, 93,108)  (  1, 98,103)  (  1, 97,104)  (  1, 94,107)  (  1, 95,106)
  0 -0.4668E-03  0 -0.6485E-03  0 -0.5321E-03  0 -0.5506E-03  0 -0.5027E-03
   (  1, 96,105)  (  1, 95,106)  (  1, 96,105)  (  1, 57,106)  (  2, 58,105)
  0 -0.5616E-03  0 -0.5048E-03  0 -0.4431E-03  0 -0.2939E-03  0 -0.2509E-03
   (  1, 57,106)  (  1, 58,105)  (  1, 55,106)  (  1, 94,107)  (  1, 93,108)
  1 -0.2275E-03  0 -0.1714E-03  0 -0.2767E-03  0 -0.3577E-03  0 -0.3233E-03
   (  1,122,111)  (  1, 93,108)  (  1, 94,107)  (  1,122,111)  (  1,124,107)
  0 -0.3533E-03  0 -0.2367E-03  0 -0.2668E-03  0 -0.2397E-03  0 -0.2794E-03
   (  1,126,103)  (  1,127,102)  (  1,129, 98)  (  2,186, 91)  (  1, 95,106)
  0 -0.2550E-03  0 -0.2679E-03  0  0.1606E-03  0 -0.2158E-03  0 -0.1920E-03
   (  1,130, 98)  (  1,100,101)  (  1, 97,104)  (  2,143, 36)  (  2,134, 35)
  0 -0.2185E-03  0 -0.2352E-03  0 -0.2963E-03  0 -0.2808E-03  0 -0.2174E-03
   (  1, 97,104)  (  1, 95,106)  (  1, 99,102)  (  1, 98,103)  (  1, 95,106)
  0 -0.2585E-03  0 -0.2407E-03  0 -0.3531E-03  0 -0.2668E-03  0 -0.2880E-03
   (  1, 98,103)  (  1, 66,105)  (  1, 57,106)  (  1, 99,102)  (  1, 57,106)
  0 -0.3288E-03  0 -0.3065E-03  0 -0.3202E-03  0 -0.3655E-03  0 -0.3690E-03
   (  1, 93,108)  (  1, 97,104)  (  1,100,101)  (  2, 55,106)  (  1, 96,105)
  1 -0.1412E-03  0 -0.1068E-03  0  0.1114E-03  0 -0.1287E-03  0  0.1053E-03
   (  1, 99,102)  (  1,126,103)  (  2,126,103)  (  1, 93,108)  (  1,186, 23)
  0  0.9001E-04  0 -0.9107E-04  0 -0.9272E-04  0  0.9164E-04  0 -0.8763E-04
   (  1,196, 26)  (  1,125,104)  (  1,126,103)  (  2,203, 28)  (  1, 95,106)
  0 -0.1333E-03  0 -0.1060E-03  0 -0.8336E-04  0 -0.1160E-03  0 -0.1257E-03
   (  1, 98,103)  (  1, 99,102)  (  1, 95,106)  (  1, 99,102)  (  1,100,101)
  0 -0.1117E-03  0 -0.9759E-04  0 -0.9299E-04  0 -0.1034E-03  0 -0.1042E-03
   (  1, 93,108)  (  1, 98,103)  (  1, 97,104)  (  1, 94,107)  (  1, 95,106)
  0 -0.8696E-04  0 -0.1248E-03  0 -0.1045E-03  0 -0.1055E-03  0 -0.9653E-04
   (  1, 96,105)  (  1, 95,106)  (  1, 96,105)  (  1, 57,106)  (  2, 58,105)
  0 -0.1081E-03  0 -0.9595E-04  0 -0.8306E-04  0 -0.5034E-04  0 -0.4086E-04
   (  1, 57,106)  (  1, 58,105)  (  1, 55,106)  (  2, 53, 94)  (  1, 93,108)
  1 -0.4025E-04  0 -0.3009E-04  0 -0.5019E-04  0 -0.6493E-04  0 -0.5823E-04
   (  1,122,111)  (  1, 93,108)  (  1, 94,107)  (  1,122,111)  (  1,124,107)
  0 -0.6302E-04  0 -0.4487E-04  0 -0.4705E-04  0 -0.4700E-04  0 -0.5039E-04
   (  1,126,103)  (  1,192,106)  (  1,131, 98)  (  2,187, 92)  (  1, 95,106)
  0 -0.4323E-04  0 -0.4700E-04  0  0.2922E-04  0 -0.3878E-04  0 -0.3453E-04
   (  1,163, 90)  (  1,100,101)  (  1, 97,104)  (  2,143, 36)  (  2,134, 35)
  0 -0.3956E-04  0 -0.4150E-04  0 -0.5243E-04  0 -0.4839E-04  0 -0.3689E-04
   (  1, 97,104)  (  1, 95,106)  (  1, 99,102)  (  1, 98,103)  (  1, 95,106)
  0 -0.4432E-04  0 -0.3923E-04  0 -0.5998E-04  0 -0.5144E-04  0 -0.5273E-04
   (  1, 98,103)  (  1, 66,105)  (  1, 57,106)  (  1, 99,102)  (  1, 57,106)
  0 -0.5829E-04  0 -0.5944E-04  0 -0.6170E-04  0 -0.7808E-04  0 -0.7847E-04
   (  1,100,101)  (  1, 98,103)  (  1,100,101)  (  1, 94,107)  (  1, 96,105)
  1 -0.2761E-04  0  0.1816E-04  0  0.1786E-04  0 -0.2304E-04  0  0.1878E-04
   (  1, 99,102)  (  1,124,107)  (  2,126,103)  (  1, 93,108)  (  2,186, 23)
  0 -0.1626E-04  0 -0.1768E-04  0 -0.1556E-04  0  0.1447E-04  0 -0.1427E-04
   (  1, 93,108)  (  2, 55,106)  (  1,126,103)  (  1,199, 25)  (  1, 95,106)
  0 -0.2214E-04  0 -0.1737E-04  0 -0.1369E-04  0 -0.1986E-04  0 -0.2236E-04
   (  1, 98,103)  (  1, 99,102)  (  1, 95,106)  (  1, 99,102)  (  1,100,101)
  0 -0.1811E-04  0 -0.1655E-04  0 -0.1609E-04  0 -0.1758E-04  0 -0.1747E-04
   (  1, 93,108)  (  1, 98,103)  (  1, 97,104)  (  1, 94,107)  (  1, 95,106)
  0 -0.1522E-04  0 -0.2178E-04  0 -0.1849E-04  0 -0.1818E-04  0 -0.1670E-04
   (  1, 96,105)  (  1, 95,106)  (  1, 96,105)  (  1, 57,106)  (  2, 58,104)
  0 -0.1866E-04  0 -0.1684E-04  0 -0.1416E-04  0 -0.8403E-05  0 -0.6876E-05
   (  1, 57,106)  (  1, 58,105)  (  1, 55,106)  (  2, 53, 95)  (  1, 93,108)
  1 -0.5225E-05  0 -0.5731E-05  0 -0.8134E-05  0 -0.1107E-04  0 -0.1043E-04
   (  1,123,108)  (  1, 93,108)  (  1, 94,107)  (  1,122,111)  (  1,128,100)
  0 -0.1156E-04  0 -0.8995E-05  0 -0.8191E-05  0 -0.8613E-05  0 -0.8043E-05
   (  1,126,103)  (  1,122,111)  (  1,131, 98)  (  2,188, 94)  (  1, 95,106)
  0 -0.7112E-05  0 -0.6015E-05  0 -0.5274E-05  0 -0.6464E-05  0 -0.5447E-05
   (  1,130, 98)  (  1,100,101)  (  1, 96,105)  (  2,143, 36)  (  1, 98,103)
  0 -0.6038E-05  0 -0.6715E-05  0 -0.8604E-05  0 -0.6420E-05  0 -0.6239E-05
   (  1, 97,104)  (  2,228, 26)  (  1, 99,102)  (  1, 98,103)  (  1, 94,107)
  0 -0.7193E-05  0 -0.6100E-05  0 -0.9824E-05  0 -0.9607E-05  0 -0.9575E-05
   (  1,100,101)  (  1,195, 23)  (  1, 57,106)  (  1, 99,102)  (  1, 98,103)
  0 -0.1144E-04  0 -0.1161E-04  0 -0.1328E-04  0 -0.1436E-04  0 -0.1419E-04
   (  1,100,101)  (  1, 98,103)  (  1,100,101)  (  2, 55,106)  (  1, 96,105)
  1 -0.4817E-05  0  0.3915E-05  0  0.2854E-05  0 -0.3809E-05  0  0.3123E-05
   (  1, 99,102)  (  1,124,107)  (  1,123,109)  (  1, 93,108)  (  2,186, 23)
  0 -0.2610E-05  0 -0.3731E-05  0 -0.2339E-05  0 -0.2969E-05  0  0.2023E-05
   (  1, 93,108)  (  1, 57,106)  (  1, 99,102)  (  1, 57,106)  (  2,201, 32)
  0 -0.2786E-05  0 -0.2573E-05  0 -0.2192E-05  0 -0.2995E-05  0 -0.2909E-05
   (  1,100,101)  (  1, 99,102)  (  1, 93,108)  (  1, 99,102)  (  1, 98,103)
  0 -0.2451E-05  0 -0.2666E-05  0 -0.2867E-05  0 -0.3061E-05  0 -0.2572E-05
   (  1, 95,106)  (  1, 99,102)  (  1, 97,104)  (  1, 96,105)  (  1, 95,106)
  0 -0.2559E-05  0 -0.3610E-05  0 -0.2555E-05  0 -0.3008E-05  0 -0.2541E-05
   (  1, 96,105)  (  1, 95,106)  (  1, 94,107)  (  1, 95,106)  (  1, 56,101)
  0 -0.2422E-05  0 -0.2619E-05  0 -0.1921E-05  0 -0.1308E-05  0 -0.1035E-05
   (  1, 57,106)  (  1, 49, 96)  (  1, 55,106)  (  1, 94,107)  (  1, 93,108)
  1 -0.7777E-06  0 -0.8561E-06  0 -0.1260E-05  0 -0.1650E-05  0 -0.1597E-05
   (  1,123,108)  (  1, 93,108)  (  1, 94,107)  (  1,122,111)  (  1,128,100)
  0 -0.1823E-05  0 -0.1482E-05  0 -0.1362E-05  0 -0.1433E-05  0 -0.1296E-05
   (  1,126,103)  (  1,192,106)  (  1,131, 98)  (  2,188, 94)  (  1, 95,106)
  0 -0.1046E-05  0 -0.9061E-06  0 -0.7984E-06  0 -0.9811E-06  0 -0.8023E-06
   (  1,130, 98)  (  1,100,101)  (  1, 96,105)  (  2,143, 36)  (  2,134, 35)
  0 -0.9564E-06  0 -0.1019E-05  0 -0.1338E-05  0 -0.1033E-05  0 -0.9615E-06
   (  1, 97,104)  (  2,227, 24)  (  1, 99,102)  (  1, 98,103)  (  1, 94,107)
  0 -0.1172E-05  0 -0.1010E-05  0 -0.1524E-05  0 -0.1625E-05  0 -0.1741E-05
   (  1,100,101)  (  1, 97,104)  (  1, 57,106)  (  1, 99,102)  (  1, 98,103)
  0 -0.2164E-05  0 -0.2125E-05  0 -0.2349E-05  0 -0.2458E-05  0 -0.2378E-05
   (  1,100,101)  (  1, 98,103)  (  1,100,101)  (  1, 94,107)  (  1, 96,105)
  1  0.7275E-06  0  0.6762E-06  0  0.4964E-06  0 -0.5569E-06  0  0.4646E-06
   (  1,123,109)  (  1,124,107)  (  1,123,109)  (  1, 93,108)  (  1,187, 24)
  0 -0.4964E-06  0 -0.5364E-06  0 -0.2945E-06  0 -0.4130E-06  0 -0.2698E-06
   (  1, 93,108)  (  1, 55,106)  (  1, 99,102)  (  1, 57,106)  (  1, 95,106)
  0 -0.4715E-06  0 -0.3422E-06  0 -0.2972E-06  0 -0.3923E-06  0 -0.4685E-06
   (  1, 98,103)  (  1, 99,102)  (  1, 96,105)  (  1, 97,104)  (  1,100,101)
  0 -0.3669E-06  0 -0.3669E-06  0 -0.3593E-06  0 -0.3924E-06  0 -0.3873E-06
   (  1, 93,108)  (  1, 99,102)  (  1,100,101)  (  1, 94,107)  (  1, 95,106)
  0 -0.3443E-06  0 -0.5307E-06  0 -0.4072E-06  0 -0.4187E-06  0 -0.4112E-06
   (  1, 96,105)  (  1, 95,106)  (  1, 96,105)  (  1, 95,106)  (  1, 57,101)
  0 -0.3648E-06  0 -0.3308E-06  0 -0.2710E-06  0 -0.1658E-06  0 -0.1520E-06
   (  1, 57,106)  (  1, 94,107)  (  1, 55,106)  (  2, 53, 95)  (  1,128,100)
  1 -0.1103E-06  0 -0.1205E-06  0 -0.1302E-06  0 -0.1516E-06  0 -0.1960E-06
   (  1,123,108)  (  1,128, 99)  (  1, 94,107)  (  1,122,111)  (  1,128,100)
  0 -0.1987E-06  0 -0.2966E-06  0 -0.2244E-06  0 -0.2490E-06  0 -0.1967E-06
   (  2,188,103)  (  1,122,111)  (  2,185,107)  (  2,188, 94)  (  1, 95,106)
  0 -0.1318E-06  0 -0.1107E-06  0 -0.9584E-07  0 -0.1079E-06  0 -0.1151E-06
   (  2,163, 86)  (  2,163, 86)  (  1,127,101)  (  1, 97,104)  (  1, 99,102)
  0 -0.1189E-06  0 -0.1368E-06  0 -0.1801E-06  0 -0.1254E-06  0 -0.1405E-06
   (  2,137, 38)  (  2,227, 24)  (  1, 99,102)  (  1, 96,105)  (  2, 55,106)
  0 -0.1716E-06  0 -0.1503E-06  0 -0.1920E-06  0 -0.2534E-06  0 -0.2204E-06
   (  1,100,101)  (  1, 96,105)  (  1, 57,106)  (  1, 99,102)  (  1, 57,106)
  0 -0.3709E-06  0 -0.3301E-06  0 -0.3512E-06  0 -0.3596E-06  0 -0.2900E-06
   (  1, 93,108)  (  1, 95,106)  (  1, 97,104)  (  1, 95,106)  (  1, 97,104)
  1  0.1221E-06  0  0.1199E-06  0  0.9334E-07  0 -0.8072E-07  0  0.5795E-07
   (  1,123,109)  (  1,124,107)  (  1,126,103)  (  2,213,110)  (  2,182, 25)
  0 -0.7208E-07  0 -0.6809E-07  0  0.3921E-07  0 -0.5193E-07  0  0.3902E-07
   (  1, 93,108)  (  1, 57,106)  (  2,201, 24)  (  1,100,101)  (  2,195, 29)
  0 -0.4766E-07  0 -0.4335E-07  0 -0.3335E-07  0 -0.5121E-07  0 -0.4837E-07
   (  1, 98,103)  (  1, 99,102)  (  1, 96,105)  (  1, 99,102)  (  1,126,103)
  0 -0.4492E-07  0 -0.4220E-07  0 -0.4467E-07  0 -0.4439E-07  0 -0.4581E-07
   (  1, 97,104)  (  1,123,109)  (  1, 97,104)  (  1, 96,105)  (  1, 95,106)
  0 -0.5060E-07  0 -0.6719E-07  0 -0.6176E-07  0 -0.7135E-07  0 -0.5216E-07
   (  2, 55,106)  (  1, 95,106)  (  1, 94,107)  (  1, 95,106)  (  2, 58,103)
  0 -0.5587E-07  0 -0.4378E-07  0 -0.3784E-07  0 -0.3085E-07  0 -0.1949E-07
   (  1, 57,106)  (  1, 58,105)  (  1, 55,106)  (  1, 94,107)  (  1, 93,108)
  1 -0.2260E-07  0 -0.2972E-07  0 -0.2435E-07  0 -0.1585E-07  0 -0.1191E-07
   (  1,131, 98)  (  1, 93,108)  (  1, 94,107)  (  1,122,111)  (  1,121,112)
  0 -0.1555E-07  0 -0.1943E-07  0 -0.2467E-07  0 -0.3428E-07  0 -0.3710E-07
   (  1, 95,106)  (  2,182,104)  (  2,182,105)  (  1,183,107)  (  2,185,101)
  0 -0.2854E-07  0 -0.2371E-07  0 -0.1692E-07  0 -0.1512E-07  0 -0.1271E-07
   (  1,125,104)  (  1,127,102)  (  1, 96,105)  (  1, 97,104)  (  2,142, 96)
  0 -0.1524E-07  0 -0.1346E-07  0 -0.2291E-07  0 -0.1814E-07  0 -0.1656E-07
   (  1,128,100)  (  1,130, 98)  (  1, 99,102)  (  1, 98,103)  (  1, 94,107)
  0 -0.2616E-07  0 -0.2214E-07  0 -0.2838E-07  0 -0.2783E-07  0 -0.3021E-07
   (  1,100,101)  (  1, 97,104)  (  1, 57,106)  (  1, 99,102)  (  1, 57,106)
  0 -0.3505E-07  0 -0.4273E-07  0 -0.4358E-07  0 -0.4984E-07  0 -0.4710E-07
   (  1, 93,108)  (  1, 98,103)  (  1,100,101)  (  1,127,102)  (  1, 96,105)
  1 -0.2606E-07  0 -0.2973E-07  0  0.2062E-07  0 -0.1417E-07  0  0.7010E-08
   (  1,217,110)  (  1,126,103)  (  1,126,103)  (  1,213,110)  (  1, 93,108)
  0 -0.8412E-08  0 -0.7661E-08  0  0.7959E-08  0 -0.7263E-08  0 -0.6143E-08
   (  1, 95,106)  (  1, 94,107)  (  1, 94,107)  (  1, 94,107)  (  1, 95,106)
  0 -0.7728E-08  0 -0.5099E-08  0 -0.4303E-08  0 -0.4510E-08  0 -0.5580E-08
   (  1, 96,105)  (  1,100,101)  (  1, 94,107)  (  1,100,101)  (  1, 98,103)
  0 -0.3969E-08  0 -0.4542E-08  0 -0.5295E-08  0 -0.5460E-08  0 -0.6261E-08
   (  1, 97,104)  (  1, 98,103)  (  1, 97,104)  (  1, 96,105)  (  1, 94,107)
  0 -0.9048E-08  0 -0.8889E-08  0 -0.9034E-08  0 -0.1179E-07  0 -0.8564E-08
   (  1,100,101)  (  1, 99,102)  (  1, 93,108)  (  1, 99,102)  (  1, 98,103)
  0 -0.9290E-08  0 -0.7954E-08  0 -0.6707E-08  0 -0.5153E-08  0 -0.3546E-08
   (  1, 55,106)  (  2, 67,104)  (  1, 93,108)  (  1, 95,106)  (  1, 93,108)
  1 -0.1020E-07  0  0.7972E-08  0  0.5317E-08  0  0.4522E-08  0  0.2250E-08
   (  1,123, 64)  (  1,122,111)  (  1, 96,105)  (  1,126,103)  (  1,122,111)
  0 -0.2048E-08  0  0.2019E-08  0 -0.1686E-08  0  0.2782E-08  0 -0.2558E-08
   (  1,122,111)  (  1,125,105)  (  1,125,105)  (  1, 99,102)  (  2,183, 99)
  0 -0.3798E-08  0 -0.3849E-08  0 -0.4870E-08  0 -0.3456E-08  0  0.2886E-08
   (  2,173,102)  (  2,182,103)  (  2,174, 96)  (  2,185,100)  (  1, 97,104)
  0 -0.2318E-08  0 -0.1815E-08  0 -0.1211E-08  0 -0.1317E-08  0 -0.1403E-08
   (  1,128,100)  (  1,131, 98)  (  1,100,101)  (  1, 96,105)  (  1, 95,106)
  0 -0.1622E-08  0 -0.2363E-08  0 -0.3259E-08  0 -0.2919E-08  0 -0.3338E-08
   (  1, 96,105)  (  1, 95,106)  (  1, 94,107)  (  1, 98,103)  (  1, 94,107)
  0 -0.3990E-08  0 -0.3751E-08  0 -0.4156E-08  0 -0.5200E-08  0 -0.6043E-08
   (  1, 93,108)  (  1, 97,104)  (  1,100,101)  (  1, 94,107)  (  1, 96,105)
  1 -0.1023E-07  0 -0.8729E-08  0  0.5233E-08  0 -0.3482E-08  0  0.2937E-08
   (  1,152, 93)  (  1, 96,105)  (  1,126,103)  (  1, 93,108)  (  1, 93,108)
  0 -0.2256E-08  0 -0.1205E-08  0  0.1212E-08  0 -0.1032E-08  0 -0.1511E-08
   (  1, 93,108)  (  1,100,101)  (  1, 94,107)  (  1, 94,107)  (  1, 95,106)
  0  0.1006E-08  0 -0.9748E-09  0 -0.1178E-08  0 -0.1252E-08  0 -0.1006E-08
   (  1, 95,106)  (  1,100,101)  (  1, 96,105)  (  1, 97,104)  (  1, 99,102)
  0 -0.8892E-09  0 -0.6408E-09  0 -0.9743E-09  0 -0.1079E-08  0 -0.1481E-08
   (  1, 97,104)  (  1, 98,103)  (  1, 97,104)  (  1, 98,103)  (  1, 94,107)
  0 -0.2057E-08  0 -0.2457E-08  0 -0.2442E-08  0 -0.3120E-08  0 -0.1957E-08
   (  1, 98,103)  (  1,128,100)  (  1,100,101)  (  1, 99,102)  (  1,100,101)
  0 -0.1734E-08  0 -0.1034E-08  0 -0.8768E-09  0 -0.9177E-09  0 -0.9459E-09
   (  1, 99,102)  (  1, 94,107)  (  1, 96,105)  (  1, 98,103)  (  1, 93,108)
  1 -0.1430E-07  0 -0.5170E-08  0  0.3198E-08  0  0.2018E-08  0  0.1758E-08
   (  1,208, 97)  (  1, 97,104)  (  1, 97,104)  (  1,126,103)  (  1,100,101)
  0  0.9342E-09  0 -0.7516E-09  0  0.4497E-09  0 -0.4578E-09  0  0.3441E-09
   (  1, 98,103)  (  1, 98,103)  (  1, 93,108)  (  1, 93,108)  (  1,126,103)
  0 -0.4255E-09  0  0.4056E-09  0  0.5416E-09  0 -0.6803E-09  0 -0.7387E-09
   (  1,100,101)  (  1,100,101)  (  1, 99,102)  (  2,169, 28)  (  2,171, 29)
  0  0.9002E-09  0 -0.7501E-09  0 -0.4043E-09  0 -0.4236E-09  0 -0.2427E-09
   (  1, 98,103)  (  1,217,110)  (  2,184, 77)  (  1,122,111)  (  1,213,110)
  0 -0.2659E-09  1  0.1274E-07  0  0.3327E-08  0  0.2518E-08  0 -0.1468E-08
   (  1, 96,105)  (  1,208, 97)  (  1,208, 97)  (  1, 96,105)  (  1,217,110)
  0  0.1007E-08  0  0.6761E-09  0 -0.5662E-09  0  0.2606E-09  0 -0.2164E-09
   (  1,213,110)  (  1, 95,106)  (  1, 95,106)  (  1,206,112)  (  1, 57,106)
  0 -0.1830E-09  0 -0.1970E-09  1 -0.1171E-07  0 -0.3908E-08  0  0.1924E-08
   (  1,100,101)  (  1, 93,108)  (  1,208, 97)  (  1,208, 97)  (  1, 99,102)
  0 -0.1463E-08  0 -0.9057E-09  0  0.5068E-09  0 -0.4532E-09  0 -0.2931E-09
   (  1, 99,102)  (  1,213,110)  (  1, 98,103)  (  1, 98,103)  (  1,206,112)
  0 -0.2727E-09  0  0.1836E-09  0 -0.2094E-09  1  0.1173E-07  0  0.3968E-08
   (  1, 96,105)  (  1, 96,105)  (  1, 96,105)  (  1,208, 97)  (  1,208, 97)
  0  0.2279E-08  0 -0.1830E-08  0  0.8693E-09  0  0.5207E-09  0 -0.5459E-09
   (  1, 96,105)  (  1, 96,105)  (  1, 96,105)  (  2,207,111)  (  1, 95,106)
  0 -0.2724E-09  0 -0.1741E-09  0 -0.2074E-09  0 -0.2055E-09  1 -0.1187E-07
   (  1, 94,107)  (  1, 99,102)  (  1,100,101)  (  1, 93,108)  (  1,208, 97)
  0 -0.3987E-08  0  0.1981E-08  0 -0.1430E-08  0 -0.8583E-09  0  0.5667E-09
   (  1,208, 97)  (  1, 93,108)  (  1, 99,102)  (  1,213,110)  (  1, 98,103)
  0 -0.5418E-09  0 -0.2878E-09  0 -0.2536E-09  0  0.2153E-09  0 -0.2036E-09
   (  1, 98,103)  (  1, 95,106)  (  1, 96,105)  (  1, 96,105)  (  1, 96,105)
  1  0.1185E-07  0  0.4004E-08  0  0.2294E-08  0 -0.2008E-08  0  0.1059E-08
   (  1,208, 97)  (  1,208, 97)  (  1, 96,105)  (  1, 96,105)  (  1, 96,105)
  0  0.5045E-09  0 -0.5098E-09  0 -0.3134E-09  0  0.1760E-09  0 -0.1918E-09
   (  2,207,111)  (  1, 95,106)  (  1, 98,103)  (  1, 94,107)  (  1, 94,107)
  0 -0.1857E-09  1 -0.1186E-07  0 -0.4001E-08  0  0.2001E-08  0 -0.1437E-08
   (  1, 93,108)  (  1,208, 97)  (  1,208, 97)  (  1, 93,108)  (  1, 93,108)
  0 -0.8521E-09  0 -0.5413E-09  0 -0.4968E-09  0 -0.3007E-09  0 -0.2412E-09
   (  1,213,110)  (  1, 95,106)  (  1, 98,103)  (  1, 95,106)  (  1, 96,105)
  0  0.2136E-09  0 -0.1922E-09  1  0.1185E-07  0  0.4019E-08  0  0.2164E-08
   (  1, 96,105)  (  1, 96,105)  (  1,208, 97)  (  1,208, 97)  (  1, 96,105)
  0 -0.1974E-08  0  0.1086E-08  0  0.5157E-09  0 -0.4820E-09  0 -0.3117E-09
   (  1, 96,105)  (  1, 96,105)  (  2,207,111)  (  1, 95,106)  (  1, 98,103)
  0  0.1613E-09  0 -0.1799E-09  0 -0.1694E-09  1 -0.1187E-07  0 -0.4015E-08
   (  1, 94,107)  (  1, 94,107)  (  1, 93,108)  (  1,208, 97)  (  1,208, 97)
  0  0.1914E-08  0 -0.1438E-08  0 -0.8525E-09  0 -0.5200E-09  0 -0.4762E-09
   (  1, 93,108)  (  1, 93,108)  (  1,213,110)  (  1, 95,106)  (  1, 98,103)
  0 -0.3007E-09  0 -0.2304E-09  0  0.2108E-09  0 -0.1819E-09  1  0.1186E-07
   (  1, 95,106)  (  1, 96,105)  (  1, 96,105)  (  1, 96,105)  (  1,208, 97)
  0  0.4033E-08  0  0.2043E-08  0 -0.1938E-08  0  0.1106E-08  0  0.5329E-09
   (  1,208, 97)  (  1, 96,105)  (  1, 96,105)  (  1, 96,105)  (  2,207,111)
  0 -0.4609E-09  0 -0.3070E-09  0 -0.1515E-09  0 -0.1685E-09  0 -0.1562E-09
   (  1, 95,106)  (  1, 98,103)  (  1, 95,106)  (  1, 94,107)  (  1, 93,108)
  1 -0.1188E-07  0 -0.4029E-08  0  0.1836E-08  0 -0.1423E-08  0 -0.8465E-09
   (  1,208, 97)  (  1,208, 97)  (  1,217,110)  (  1, 93,108)  (  1,213,110)
  0 -0.5309E-09  0  0.4635E-09  0 -0.2981E-09  0 -0.2179E-09  0  0.2066E-09
   (  2,207,111)  (  1, 95,106)  (  1, 95,106)  (  1, 96,105)  (  1, 96,105)
  0 -0.1739E-09  1  0.1187E-07  0  0.4044E-08  0 -0.1995E-08  0 -0.1901E-08
   (  1, 96,105)  (  1,208, 97)  (  1,208, 97)  (  1,217,110)  (  1, 96,105)
  0  0.1119E-08  0  0.5499E-09  0 -0.4402E-09  0 -0.3017E-09  0 -0.1485E-09
   (  1, 96,105)  (  2,207,111)  (  1, 95,106)  (  1, 98,103)  (  1, 95,106)
  0 -0.1582E-09  0 -0.1451E-09  1 -0.1188E-07  0 -0.4042E-08  0  0.1907E-08
   (  1, 94,107)  (  1, 93,108)  (  1,208, 97)  (  1,208, 97)  (  1,217,110)
  0 -0.1396E-08  0 -0.8413E-09  0 -0.5462E-09  0  0.4504E-09  0 -0.2943E-09
   (  1, 93,108)  (  1, 94,107)  (  2,207,111)  (  1, 95,106)  (  1, 95,106)
  0 -0.2046E-09  0  0.2012E-09  0 -0.1671E-09  1  0.1187E-07  0  0.4054E-08
   (  1, 96,105)  (  1, 96,105)  (  1, 96,105)  (  1,208, 97)  (  1,208, 97)
  0 -0.2057E-08  0 -0.1864E-08  0  0.1131E-08  0  0.5654E-09  0 -0.4182E-09
   (  1,217,110)  (  1, 96,105)  (  1, 96,105)  (  2,207,111)  (  1, 95,106)
  0 -0.2957E-09  0  0.1533E-09  0 -0.1495E-09  0 -0.1359E-09  1 -0.1189E-07
   (  1, 98,103)  (  1,212,111)  (  1, 94,107)  (  1, 93,108)  (  1,208, 97)
  0 -0.4054E-08  0  0.1973E-08  0 -0.1358E-08  0 -0.8431E-09  0 -0.5597E-09
   (  1,208, 97)  (  1,217,110)  (  1, 93,108)  (  1, 94,107)  (  2,207,111)
  0  0.4359E-09  0 -0.2900E-09  0 -0.1921E-09  0  0.1955E-09  0 -0.1608E-09
   (  1, 95,106)  (  1, 95,106)  (  1, 96,105)  (  1, 96,105)  (  1, 96,105)
  1  0.1188E-07  0  0.4064E-08  0 -0.2119E-08  0 -0.1823E-08  0  0.1147E-08
   (  1,208, 97)  (  1,208, 97)  (  1,217,110)  (  1, 96,105)  (  1, 96,105)
  0  0.5786E-09  0 -0.3947E-09  0 -0.2882E-09  0  0.1601E-09  0 -0.1420E-09
   (  2,207,111)  (  1, 95,106)  (  1, 98,103)  (  1,212,111)  (  1, 94,107)
  0 -0.1280E-09  1 -0.1189E-07  0 -0.4063E-08  0  0.2031E-08  0 -0.1311E-08
   (  1, 93,108)  (  1,208, 97)  (  1,208, 97)  (  1,217,110)  (  1, 93,108)
  0 -0.8455E-09  0 -0.5720E-09  0  0.4197E-09  0 -0.2855E-09  0 -0.1824E-09
   (  1, 94,107)  (  2,207,111)  (  1, 95,106)  (  1, 95,106)  (  1,212,111)
  0  0.1905E-09  0 -0.1550E-09  1  0.1188E-07  0  0.4073E-08  0 -0.2180E-08
   (  1, 96,105)  (  1, 96,105)  (  1,208, 97)  (  1,208, 97)  (  1,217,110)
  0 -0.1770E-08  0  0.1162E-08  0  0.5890E-09  0 -0.3697E-09  0 -0.2788E-09
   (  1, 96,105)  (  1, 96,105)  (  2,207,111)  (  1, 95,106)  (  1, 98,103)
  0  0.1664E-09  0 -0.1350E-09  0 -0.1211E-09  1 -0.1196E-07  0 -0.4105E-08
   (  1,212,111)  (  1, 94,107)  (  1, 93,108)  (  1,208, 97)  (  1,208, 97)
  0  0.2051E-08  0 -0.1297E-08  0 -0.9347E-09  0 -0.6097E-09  0  0.3999E-09
   (  1,217,110)  (  1, 93,108)  (  1,217,110)  (  2,207,111)  (  1, 95,106)
  0 -0.2829E-09  0 -0.2259E-09  0  0.1891E-09  0 -0.1568E-09  1  0.1190E-07
   (  1, 95,106)  (  1,212,111)  (  1, 96,105)  (  1, 96,105)  (  1,208, 97)
  0  0.4079E-08  0 -0.2241E-08  0 -0.1714E-08  0  0.1171E-08  0  0.5973E-09
   (  1,208, 97)  (  1,217,110)  (  1, 96,105)  (  1, 96,105)  (  2,207,111)
  0 -0.3482E-09  0 -0.2703E-09  0  0.1738E-09  0 -0.1279E-09  0 -0.1163E-09
   (  1, 95,106)  (  1, 98,103)  (  1,212,111)  (  1, 94,107)  (  1, 93,108)
  1 -0.1190E-07  0 -0.4082E-08  0  0.2160E-08  0 -0.1196E-08  0 -0.8590E-09
   (  1,208, 97)  (  1,208, 97)  (  1,217,110)  (  1, 93,108)  (  1, 94,107)
  0 -0.5953E-09  0  0.3790E-09  0 -0.2782E-09  0 -0.1945E-09  0  0.1795E-09
   (  2,207,111)  (  1, 95,106)  (  1, 95,106)  (  1,212,111)  (  1, 96,105)
  0 -0.1465E-09  1  0.1189E-07  0  0.4088E-08  0 -0.2289E-08  0 -0.1648E-08
   (  1, 96,105)  (  1,208, 97)  (  1,208, 97)  (  1,217,110)  (  1, 96,105)
  0  0.1182E-08  0  0.6030E-09  0 -0.3236E-09  0  0.2619E-09  0  0.1773E-09
   (  1, 96,105)  (  2,207,111)  (  1, 95,106)  (  1, 95,106)  (  1,212,111)
  0 -0.1231E-09  0 -0.1115E-09  1 -0.1190E-07  0 -0.4087E-08  0  0.2191E-08
   (  1, 94,107)  (  1, 93,108)  (  1,208, 97)  (  1,208, 97)  (  1,217,110)
  0  0.1182E-08  0 -0.8661E-09  0 -0.6005E-09  0  0.3607E-09  0 -0.2702E-09
   (  1, 94,107)  (  1, 94,107)  (  2,207,111)  (  1, 95,106)  (  1, 95,106)
  0 -0.1975E-09  0  0.1775E-09  0 -0.1429E-09  1  0.1189E-07  0  0.4094E-08
   (  1,212,111)  (  1, 96,105)  (  1, 96,105)  (  1,208, 97)  (  1,208, 97)
  0 -0.2329E-08  0 -0.1567E-08  0  0.1174E-08  0  0.6047E-09  0 -0.2995E-09
   (  1,217,110)  (  1, 96,105)  (  1, 96,105)  (  2,207,111)  (  1, 95,106)
  0  0.2537E-09  0  0.1792E-09  0 -0.1162E-09  0 -0.1063E-09  1 -0.1191E-07
   (  1, 95,106)  (  1,212,111)  (  1, 94,107)  (  1, 93,108)  (  1,208, 97)
  0 -0.4092E-08  0  0.2226E-08  0  0.1167E-08  0 -0.8716E-09  0 -0.6034E-09
   (  1,208, 97)  (  1,217,110)  (  1, 94,107)  (  1, 94,107)  (  2,207,111)
  0  0.3416E-09  0 -0.2603E-09  0 -0.2003E-09  0  0.1741E-09  0 -0.1405E-09
   (  1, 95,106)  (  1, 95,106)  (  1,212,111)  (  1, 96,105)  (  1, 96,105)
  1  0.1190E-07  0  0.4098E-08  0 -0.2358E-08  0 -0.1503E-08  0  0.1163E-08
   (  1,208, 97)  (  1,208, 97)  (  1,217,110)  (  1, 96,105)  (  1, 96,105)
  0  0.6061E-09  0 -0.2771E-09  0  0.2460E-09  0  0.1798E-09  0 -0.1112E-09
   (  2,207,111)  (  1, 95,106)  (  1, 95,106)  (  1,212,111)  (  1, 94,107)
  0 -0.1018E-09  1 -0.1191E-07  0 -0.4095E-08  0  0.2251E-08  0  0.1143E-08
   (  1, 93,108)  (  1,208, 97)  (  1,208, 97)  (  1,217,110)  (  1, 94,107)
  0 -0.8696E-09  0 -0.6041E-09  0  0.3242E-09  0 -0.2495E-09  0 -0.2019E-09
   (  1, 94,107)  (  2,207,111)  (  1, 95,106)  (  1, 95,106)  (  1,212,111)
  0  0.1694E-09  0 -0.1369E-09
   (  1, 96,105)  (  1, 96,105)

 MAXIMUM RESIDUAL FOR EACH ITERATION (1 INDICATES THE FIRST INNER ITERATION):

    RESIDUAL       RESIDUAL       RESIDUAL       RESIDUAL       RESIDUAL    
   LAYER,ROW,COL  LAYER,ROW,COL  LAYER,ROW,COL  LAYER,ROW,COL  LAYER,ROW,COL
 ---------------------------------------------------------------------------
  1  0.1171E+05  0  0.3672E+05  0 -0.3517E+05  0 -0.2835E+05  0 -0.2007E+05
   (  2,248,112)  (  2, 58,105)  (  2, 58,105)  (  2, 67,104)  (  2,213,110)
  0 -0.3305E+05  0  0.4593E+05  0  0.7619E+05  0 -0.9014E+05  0  0.7969E+05
   (  2,100,101)  (  2,100,101)  (  2, 98,103)  (  2, 98,103)  (  2, 98,103)
  0 -0.7302E+05  0 -0.7780E+05  0  0.7173E+05  0 -0.5263E+05  0 -0.4969E+05
   (  2, 98,103)  (  2, 97,104)  (  2, 99,102)  (  2, 99,102)  (  2,100,101)
  0  0.4114E+05  0 -0.4604E+05  0 -0.1783E+05  0 -0.2482E+05  0 -0.3236E+05
   (  2, 93,108)  (  2, 93,108)  (  1,151, 66)  (  2, 96,105)  (  2, 95,106)
  0 -0.1573E+05  0  0.1277E+05  0  -8710.      0  -6000.      0  -5285.    
   (  2, 96,105)  (  2, 94,107)  (  2, 94,107)  (  2,127,101)  (  2,131, 98)
  0   7251.      0   6535.      0   5296.      0  -6238.      0  -6885.    
   (  2,249,111)  (  2,249,111)  (  2, 94,107)  (  2,100,101)  (  2, 93,108)
  1   4697.      0   3405.      0  -3434.      0   2793.      0  -2651.    
   (  1, 93,108)  (  2, 94,107)  (  1, 94,107)  (  2, 94,107)  (  1,122,110)
  0   1360.      0   1883.      0   2498.      0   2177.      0  -3028.    
   (  1,128,100)  (  1,129, 98)  (  1, 94,107)  (  1, 95,106)  (  1, 95,106)
  0   2363.      0  -2023.      0   2300.      0   1966.      0   3116.    
   (  1,128, 99)  (  1, 95,106)  (  1, 95,106)  (  1, 96,105)  (  1, 99,102)
  0  -2172.      0   2088.      0  -3101.      0  -3006.      0   1960.    
   (  2, 99,102)  (  2,249, 50)  (  1, 97,104)  (  1, 98,103)  (  1, 98,103)
  0  -1956.      0   2866.      0  -2455.      0  -1750.      0   2333.    
   (  2, 98,103)  (  1, 98,103)  (  2,249, 50)  (  2,249, 50)  (  2,126,103)
  0  -1802.      0   1762.      0   2334.      0   2629.      0  -3507.    
   (  1,126,103)  (  2,213,110)  (  2,249, 50)  (  2,249, 50)  (  2,126,103)
  1   2255.      0  -1481.      0   987.1      0  -661.0      0  -1132.    
   (  1,126,103)  (  2,126,103)  (  2,249,111)  (  2,124,106)  (  2,249, 50)
  0  -1382.      0  -1324.      0   932.3      0   696.9      0   1109.    
   (  2,124,106)  (  1,123,108)  (  2,218,109)  (  1,249, 49)  (  1, 98,103)
  0  -1296.      0  -563.3      0   788.4      0  -1162.      0  -867.2    
   (  1, 98,103)  (  2, 99,102)  (  1, 99,102)  (  1, 97,104)  (  1,100,101)
  0   879.5      0  -1047.      0   583.7      0  -471.4      0  -894.1    
   (  1, 98,103)  (  1, 98,103)  (  1, 98,103)  (  2, 72,104)  (  1, 95,106)
  0   1082.      0  -694.0      0   484.9      0   289.7      0  -599.7    
   (  1, 95,106)  (  2, 95,106)  (  1, 95,106)  (  1, 94,107)  (  1,128, 99)
  0  -567.2      0  -575.4      0   731.1      0   771.3      0  -792.8    
   (  2,127,101)  (  1, 94,107)  (  2, 94,107)  (  1, 93,108)  (  2, 93,108)
  1   632.9      0   576.7      0  -462.6      0   425.4      0  -586.6    
   (  1, 93,108)  (  2, 94,107)  (  1, 94,107)  (  1,128,100)  (  1,128, 99)
  0  -332.2      0   417.3      0  -522.4      0   677.8      0  -740.6    
   (  2,249, 50)  (  1, 95,106)  (  2, 95,106)  (  1, 95,106)  (  1, 95,106)
  0  -356.0      0   415.0      0  -401.2      0   400.9      0  -700.6    
   (  1, 96,105)  (  1,128, 99)  (  2,128, 99)  (  1, 98,103)  (  1, 98,103)
  0   444.7      0   323.2      0  -507.9      0  -656.7      0   398.3    
   (  1, 98,103)  (  1, 99,102)  (  1, 99,102)  (  2,100,101)  (  1,100,101)
  0  -242.4      0   478.2      0   323.1      0  -272.1      0   455.3    
   (  1, 98,103)  (  1, 93,108)  (  2,126,103)  (  1,126,103)  (  2,126,103)
  0  -345.4      0   301.5      0   283.0      0   280.4      0  -541.7    
   (  1,126,103)  (  2,213,110)  (  2,249,111)  (  2,248,112)  (  2,126,103)
  1   381.7      0  -409.1      0   250.4      0  -137.7      0  -233.9    
   (  1,126,103)  (  2,126,103)  (  1,126,103)  (  1,126,103)  (  2,213,110)
  0  -234.5      0  -277.1      0  -186.8      0  -119.1      0   148.5    
   (  1,124,106)  (  1,123,108)  (  2,248,112)  (  2,131, 98)  (  1,100,101)
  0  -268.6      0  -140.2      0   118.3      0   173.6      0  -254.5    
   (  2, 98,103)  (  1, 99,102)  (  1, 99,102)  (  1, 98,103)  (  1, 98,103)
  0   129.2      0   96.48      0   138.9      0  -109.1      0  -206.1    
   (  2, 98,103)  (  1,125,104)  (  1, 96,105)  (  1, 96,105)  (  1, 95,106)
  0   203.3      0  -151.9      0   122.3      0   90.58      0  -125.0    
   (  1, 95,106)  (  2, 95,106)  (  1, 95,106)  (  1, 94,107)  (  1, 94,107)
  0  -110.6      0   87.82      0  -113.3      0   116.5      0  -127.1    
   (  1, 93,108)  (  1, 93,108)  (  2, 93,108)  (  1, 93,108)  (  2, 93,108)
  1   108.5      0   107.1      0  -101.6      0   92.06      0  -106.3    
   (  1, 93,108)  (  2, 94,107)  (  1, 94,107)  (  2, 94,107)  (  1,128, 99)
  0  -65.55      0   88.73      0  -107.4      0   135.5      0  -154.7    
   (  2,249, 50)  (  1, 95,106)  (  2, 95,106)  (  1, 95,106)  (  1, 95,106)
  0  -85.49      0  -91.51      0   80.21      0  -70.49      0   105.5    
   (  1, 96,105)  (  1, 97,104)  (  2, 97,104)  (  1, 97,104)  (  1, 97,104)
  0  -64.13      0   58.09      0  -104.7      0   133.9      0   67.14    
   (  1, 97,104)  (  1, 99,102)  (  1, 99,102)  (  2, 99,102)  (  1,100,101)
  0  -55.44      0   107.5      0  -77.31      0  -54.67      0   92.14    
   (  2,248,112)  (  1, 93,108)  (  2,248,112)  (  2,246,112)  (  2,126,103)
  0  -90.39      0   67.65      0  -62.08      0   75.54      0  -103.3    
   (  1,126,103)  (  1,126,103)  (  2,126,103)  (  2,248,112)  (  2,126,103)
  1   72.96      0  -81.47      0   53.91      0  -34.17      0   52.50    
   (  1,126,103)  (  2,126,103)  (  1,126,103)  (  1,126,103)  (  2,126,103)
  0  -52.33      0   66.34      0  -43.12      0  -22.45      0   28.94    
   (  1,126,103)  (  2,126,103)  (  2,248,112)  (  2,218,109)  (  1,100,101)
  0   67.29      0  -43.65      0   24.87      0  -31.39      0   40.81    
   (  1, 99,102)  (  1, 99,102)  (  1, 99,102)  (  1, 97,104)  (  1, 97,104)
  0  -24.25      0   24.99      0  -30.78      0   24.39      0  -43.13    
   (  1, 97,104)  (  2, 97,104)  (  1,100,101)  (  2, 95,106)  (  1, 95,106)
  0   36.85      0  -30.35      0  -23.47      0  -14.27      0  -22.38    
   (  1, 95,106)  (  2, 95,106)  (  2, 96,105)  (  2,248,110)  (  1,128, 99)
  0  -18.29      0  -21.89      0   22.70      0   15.61      0  -14.70    
   (  1, 93,108)  (  1, 94,107)  (  2, 94,107)  (  2,248,112)  (  2, 93,108)
  1   15.12      0   23.34      0  -22.30      0  -18.19      0  -20.35    
   (  1, 93,108)  (  2, 94,107)  (  1, 94,107)  (  1, 93,108)  (  1,128, 99)
  0  -13.73      0   19.69      0  -23.25      0   26.34      0  -29.80    
   (  2,248,112)  (  1, 95,106)  (  2, 95,106)  (  1, 95,106)  (  1, 95,106)
  0  -16.20      0   20.97      0   16.11      0  -13.99      0   21.45    
   (  1, 96,105)  (  1, 96,105)  (  2, 97,104)  (  1, 97,104)  (  1, 97,104)
  0  -13.61      0   10.48      0  -18.30      0   28.52      0   12.76    
   (  2, 97,104)  (  1, 99,102)  (  1, 99,102)  (  2, 99,102)  (  1,100,101)
  0  -13.32      0   17.14      0  -15.29      0  -11.84      0  -11.24    
   (  2,248,112)  (  1,100,101)  (  2,248,112)  (  2,246,112)  (  2,213,110)
  0  -9.843      0   11.59      0   11.07      0   17.71      0  -19.57    
   (  1,100,101)  (  2,213,110)  (  2,249,111)  (  2,248,112)  (  2,126,103)
  1   14.06      0  -16.96      0   11.44      0  -6.549      0   9.238    
   (  1,126,103)  (  2,126,103)  (  1,126,103)  (  1,126,103)  (  2,126,103)
  0  -9.234      0   12.78      0  -8.568      0  -4.480      0   5.920    
   (  1,126,103)  (  2,126,103)  (  2,248,112)  (  2,248,112)  (  1, 98,103)
  0  -12.07      0   7.633      0   6.937      0  -7.575      0  -5.550    
   (  2, 98,103)  (  1, 98,103)  (  1, 99,102)  (  2, 97,104)  (  1,100,101)
  0   3.542      0   5.835      0  -6.786      0   3.589      0  -6.913    
   (  2,132, 97)  (  2, 97,104)  (  1,100,101)  (  2, 95,106)  (  1, 95,106)
  0   6.898      0  -7.582      0   6.082      0  -3.533      0   3.710    
   (  1, 95,106)  (  2, 95,106)  (  1, 95,106)  (  2, 95,106)  (  2, 93,108)
  0  -3.341      0  -4.314      0   4.389      0   3.120      0  -2.750    
   (  1, 93,108)  (  1, 94,107)  (  2, 94,107)  (  2,248,112)  (  1,121,112)
  1   2.800      0   4.697      0  -4.582      0  -3.268      0   3.410    
   (  1, 93,108)  (  2, 94,107)  (  1, 94,107)  (  1, 93,108)  (  2, 93,108)
  0  -3.292      0   4.650      0  -5.334      0   4.739      0  -4.779    
   (  2,248,112)  (  1, 95,106)  (  2, 95,106)  (  1, 95,106)  (  1, 95,106)
  0   2.663      0  -5.113      0   3.559      0   2.713      0   2.913    
   (  2, 95,106)  (  1, 97,104)  (  2, 97,104)  (  2,248,112)  (  1, 97,104)
  0  -3.476      0   2.841      0   3.177      0  -4.967      0   2.540    
   (  2, 97,104)  (  1, 99,102)  (  1, 98,103)  (  1, 98,103)  (  2, 98,103)
  0  -2.748      0  -3.279      0  -2.923      0  -2.373      0  -2.442    
   (  2,248,112)  (  2,248,112)  (  2,248,112)  (  2,246,112)  (  2,213,110)
  0   1.621      0   2.450      0  -3.269      0   3.829      0   3.840    
   (  2,248,112)  (  2,249,111)  (  2,126,103)  (  2,248,112)  (  2,248,112)
  1   2.940      0  -3.001      0   1.914      0  -1.075      0  -1.613    
   (  2,248,112)  (  2,126,103)  (  1,126,103)  (  1,126,103)  (  2,213,110)
  0  -1.678      0   2.508      0  -1.592      0 -0.8932      0   1.045    
   (  1,126,103)  (  2,126,103)  (  2,248,112)  (  2,248,112)  (  1, 98,103)
  0  -2.109      0   1.361      0   1.265      0  -1.416      0   1.027    
   (  2, 98,103)  (  1, 98,103)  (  1, 99,102)  (  2, 97,104)  (  1, 97,104)
  0  0.6471      0   1.047      0  -1.190      0  0.6431      0  -1.248    
   (  2,132, 97)  (  2, 97,104)  (  1, 97,104)  (  2, 95,106)  (  1, 95,106)
  0   1.288      0  -1.461      0   1.187      0 -0.7008      0  0.7293    
   (  1, 95,106)  (  2, 95,106)  (  1, 95,106)  (  2, 95,106)  (  2, 93,108)
  0 -0.6243      0 -0.7818      0  0.7430      0  0.5906      0  0.5102    
   (  1, 93,108)  (  1, 94,107)  (  2, 94,107)  (  2,248,112)  (  2,248,112)
  1  0.4720      0  0.8298      0 -0.8582      0 -0.6365      0  0.6775    
   (  1, 93,108)  (  2, 94,107)  (  1, 94,107)  (  1, 93,108)  (  2, 93,108)
  0 -0.7354      0  0.8815      0 -0.9908      0  0.8614      0 -0.8523    
   (  2,248,112)  (  1, 95,106)  (  2, 95,106)  (  1, 95,106)  (  1, 95,106)
  0  0.4848      0 -0.9373      0  0.6470      0  0.5722      0  0.5500    
   (  2, 95,106)  (  1, 97,104)  (  2, 97,104)  (  2,248,112)  (  1, 97,104)
  0 -0.6257      0  0.4741      0  0.5561      0 -0.8554      0  0.4382    
   (  2, 97,104)  (  1, 99,102)  (  1, 98,103)  (  1, 98,103)  (  2, 98,103)
  0 -0.5288      0 -0.6068      0 -0.5361      0 -0.4401      0 -0.4303    
   (  2,248,112)  (  2,248,112)  (  2,248,112)  (  2,246,112)  (  2,213,110)
  0  0.3741      0  0.5029      0  0.5685      0  0.7815      0  0.7672    
   (  2,248,112)  (  2,249,111)  (  2,249,111)  (  2,248,112)  (  2,248,112)
  1  0.5889      0 -0.4786      0  0.2861      0 -0.1859      0 -0.2803    
   (  2,248,112)  (  2,126,103)  (  1,126,103)  (  1, 93,108)  (  2,213,110)
  0 -0.2406      0  0.4120      0 -0.2785      0 -0.1692      0  0.1841    
   (  1,126,103)  (  2,126,103)  (  2,248,112)  (  2,248,112)  (  1, 98,103)
  0 -0.3360      0  0.2142      0  0.2240      0 -0.2519      0 -0.1745    
   (  2, 98,103)  (  1, 98,103)  (  1, 99,102)  (  2, 97,104)  (  1,100,101)
  0  0.1324      0  0.1789      0 -0.2129      0  0.1109      0 -0.2064    
   (  2,248,112)  (  2, 97,104)  (  1, 97,104)  (  2, 95,106)  (  1, 95,106)
  0  0.2112      0 -0.2496      0  0.2161      0 -0.1370      0  0.1522    
   (  1, 95,106)  (  2, 95,106)  (  1, 95,106)  (  2, 95,106)  (  1,126,103)
  0 -0.9252E-01  0 -0.1320      0  0.1219      0  0.1061      0  0.9452E-01
   (  1, 93,108)  (  1, 94,107)  (  2, 94,107)  (  2,248,112)  (  2,248,112)
  1  0.9079E-01  0  0.1343      0 -0.1345      0 -0.9857E-01  0 -0.1291    
   (  1, 93,108)  (  2, 94,107)  (  1, 94,107)  (  1, 93,108)  (  2, 94,107)
  0 -0.1561      0  0.1574      0 -0.1574      0  0.1397      0 -0.1438    
   (  2,248,112)  (  1, 95,106)  (  2, 95,106)  (  1, 95,106)  (  1, 95,106)
  0 -0.9114E-01  0 -0.1423      0  0.1095      0  0.1142      0  0.1100    
   (  1, 96,105)  (  1, 97,104)  (  2,248,112)  (  2,248,112)  (  1, 97,104)
  0  0.8481E-01  0  0.6144E-01  0 -0.9571E-01  0  0.1338      0 -0.7355E-01
   (  2,248,112)  (  1, 99,102)  (  1, 99,102)  (  2, 99,102)  (  2,248,112)
  0 -0.9676E-01  0 -0.1078      0 -0.9444E-01  0 -0.7660E-01  0 -0.7370E-01
   (  2,248,112)  (  2,248,112)  (  2,248,112)  (  2,246,112)  (  2,213,110)
  0  0.7892E-01  0  0.1067      0  0.1155      0  0.1503      0  0.1457    
   (  2,248,112)  (  2,249,111)  (  2,249,111)  (  2,248,112)  (  2,248,112)
  1  0.1122      0  0.7155E-01  0  0.5024E-01  0 -0.3139E-01  0 -0.4359E-01
   (  2,248,112)  (  2,246,112)  (  2,213,110)  (  1, 93,108)  (  2,213,110)
  0 -0.3752E-01  0 -0.4918E-01  0 -0.4550E-01  0 -0.3055E-01  0  0.2817E-01
   (  2,246,112)  (  2,248,112)  (  2,248,112)  (  2,248,112)  (  1,100,101)
  0  0.4935E-01  0 -0.3368E-01  0  0.2454E-01  0  0.3071E-01  0  0.2987E-01
   (  1, 99,102)  (  1, 99,102)  (  2,248,112)  (  2,248,112)  (  2,248,112)
  0  0.2596E-01  0  0.2855E-01  0 -0.4025E-01  0 -0.2390E-01  0 -0.3239E-01
   (  2,248,112)  (  2, 97,104)  (  1, 97,104)  (  2, 96,105)  (  1, 95,106)
  0  0.3189E-01  0 -0.3626E-01  0  0.3626E-01  0 -0.2427E-01  0 -0.2377E-01
   (  1, 95,106)  (  2, 95,106)  (  1, 95,106)  (  2, 95,106)  (  2, 94,107)
  0 -0.1834E-01  0 -0.2316E-01  0 -0.2450E-01  0  0.1759E-01  0  0.1619E-01
   (  1, 93,108)  (  1, 94,107)  (  2, 93,108)  (  2,248,112)  (  2,248,112)
  1  0.1453E-01  0  0.2107E-01  0 -0.2115E-01  0 -0.1609E-01  0 -0.2357E-01
   (  2,248,112)  (  2, 94,107)  (  1, 94,107)  (  1, 93,108)  (  2,248,112)
  0 -0.2904E-01  0 -0.2902E-01  0 -0.2577E-01  0  0.2273E-01  0 -0.2296E-01
   (  2,248,112)  (  2,248,112)  (  2,248,112)  (  1, 95,106)  (  1, 95,106)
  0 -0.1378E-01  0 -0.2048E-01  0  0.1704E-01  0  0.1893E-01  0  0.1831E-01
   (  1, 96,105)  (  1, 97,104)  (  2,248,112)  (  2,248,112)  (  2,248,112)
  0  0.1546E-01  0  0.9326E-02  0 -0.1542E-01  0  0.2051E-01  0 -0.1112E-01
   (  2,248,112)  (  2,246,112)  (  1, 99,102)  (  2, 99,102)  (  2,248,112)
  0 -0.1572E-01  0 -0.1812E-01  0 -0.1648E-01  0 -0.1199E-01  0 -0.1086E-01
   (  2,248,112)  (  2,248,112)  (  2,248,112)  (  2,246,112)  (  2,213,110)
  0  0.1172E-01  0  0.1733E-01  0  0.2055E-01  0  0.2584E-01  0  0.2585E-01
   (  2,248,112)  (  2,249,111)  (  2,249,111)  (  2,248,112)  (  2,248,112)
  1  0.1987E-01  0  0.1213E-01  0  0.9218E-02  0 -0.5323E-02  0  0.6421E-02
   (  2,248,112)  (  2,249,111)  (  2,213,110)  (  1, 93,108)  (  1, 93,108)
  0 -0.4984E-02  0 -0.7597E-02  0 -0.7144E-02  0 -0.5125E-02  0  0.4823E-02
   (  2,247,112)  (  2,248,112)  (  2,248,112)  (  2,248,112)  (  2, 98,103)
  0 -0.7038E-02  0  0.3978E-02  0  0.3771E-02  0 -0.5362E-02  0  0.4690E-02
   (  1, 98,103)  (  1, 98,103)  (  1, 97,104)  (  2, 97,104)  (  2,248,112)
  0  0.4319E-02  0  0.3632E-02  0 -0.5150E-02  0  0.2897E-02  0 -0.4387E-02
   (  2,248,112)  (  2, 97,104)  (  2,100,101)  (  2, 95,106)  (  1, 95,106)
  0  0.4448E-02  0 -0.5595E-02  0 -0.5185E-02  0 -0.4635E-02  0 -0.3012E-02
   (  1, 95,106)  (  2, 95,106)  (  2,248,112)  (  2,248,112)  (  2, 94,107)
  0 -0.3535E-02  0 -0.3114E-02  0  0.1987E-02  0  0.2217E-02  0 -0.2228E-02
   (  1, 93,108)  (  1, 94,107)  (  2, 94,107)  (  2,248,112)  (  2, 93,108)
  1 -0.3615E-02  0  0.1916E-02  0 -0.2446E-02  0  0.2542E-02  0  0.3739E-02
   (  1,122, 67)  (  2, 94,107)  (  1, 94,107)  (  1,122, 67)  (  1,122, 67)
  0  0.4521E-02  0  0.4293E-02  0  0.3394E-02  0  0.3003E-02  0 -0.3897E-02
   (  1,122, 67)  (  1,122, 67)  (  1,122, 67)  (  1, 95,106)  (  1, 95,106)
  0  0.2100E-02  0  0.2025E-02  0  0.1632E-02  0 -0.2070E-02  0  0.2362E-02
   (  2, 95,106)  (  1, 96,105)  (  2, 97,104)  (  1, 97,104)  (  1, 97,104)
  0  0.2017E-02  0  0.1775E-02  0 -0.2152E-02  0  0.2391E-02  0  0.1571E-02
   (  2,248,112)  (  2,248,112)  (  1, 99,102)  (  2, 99,102)  (  2,100,101)
  0 -0.1463E-02  0  0.2432E-02  0 -0.2201E-02  0 -0.1739E-02  0  0.2248E-02
   (  1, 98,103)  (  2, 98,103)  (  2,248,112)  (  2,148, 90)  (  1, 93,108)
  0 -0.1967E-02  0 -0.1948E-02  0  0.2094E-02  0  0.2404E-02  0  0.3124E-02
   (  2,123, 66)  (  2,100,101)  (  2,249,111)  (  2,248,112)  (  2,248,112)
  1 -0.4442E-02  0 -0.2703E-02  0  0.1614E-02  0  0.7347E-03  0  0.9545E-03
   (  1,246, 49)  (  1,246, 49)  (  2,213,110)  (  2,246, 49)  (  1,246, 49)
  0  0.1185E-02  0  0.1149E-02  0  0.9410E-03  0  0.6164E-03  0 -0.4956E-03
   (  1,246, 49)  (  1,246, 49)  (  1,246, 49)  (  1,246, 49)  (  2,132, 97)
  0  0.7232E-03  0 -0.6563E-03  0  0.5476E-03  0 -0.5940E-03  0 -0.5252E-03
   (  2, 99,102)  (  1, 99,102)  (  2, 99,102)  (  2, 97,104)  (  1,246, 49)
  0  0.6492E-03  0  0.5070E-03  0 -0.5160E-03  0 -0.4113E-03  0 -0.5432E-03
   (  2,132, 97)  (  2, 97,104)  (  1, 97,104)  (  1, 96,105)  (  1, 95,106)
  0  0.5034E-03  0 -0.6683E-03  0  0.6765E-03  0 -0.5792E-03  0  0.6175E-03
   (  1,246, 49)  (  2, 95,106)  (  1, 95,106)  (  2, 95,106)  (  1, 95,106)
  0 -0.3507E-03  0 -0.3362E-03  0  0.4370E-03  0  0.2808E-03  0 -0.2218E-03
   (  2,133, 96)  (  1, 94,107)  (  1, 94,107)  (  1, 93,108)  (  2, 93,108)
  1  0.1938E-02  0 -0.9148E-03  0 -0.5759E-03  0 -0.3500E-03  0 -0.4682E-03
   (  1,125, 62)  (  1,125, 61)  (  1,125, 61)  (  2,215, 35)  (  1,129, 70)
  0 -0.6351E-03  0 -0.8398E-03  0  0.1042E-02  0  0.1167E-02  0 -0.1104E-02
   (  1,125, 62)  (  1,125, 62)  (  1,125, 61)  (  1,125, 61)  (  2,125, 61)
  0 -0.1035E-02  0 -0.7532E-03  0 -0.4678E-03  0  0.2996E-03  0 -0.2574E-03
   (  2,125, 61)  (  2,125, 61)  (  2,125, 61)  (  2,216, 34)  (  2,129, 98)
  0 -0.2841E-03  0  0.3343E-03  0  0.3835E-03  0 -0.4383E-03  0 -0.4271E-03
   (  1,125, 61)  (  2,125, 61)  (  2,125, 61)  (  2,216, 34)  (  2,216, 34)
  0 -0.3716E-03  0  0.3086E-03  0 -0.2530E-03  0  0.2717E-03  0  0.3466E-03
   (  2,212, 37)  (  2,126, 60)  (  2,131, 96)  (  1,125, 61)  (  2,216, 34)
  0  0.4036E-03  0 -0.4646E-03  0 -0.5299E-03  0 -0.5018E-03  0 -0.3806E-03
   (  2,216, 34)  (  2,126, 60)  (  2,126, 60)  (  2,126, 60)  (  2,126, 60)
  1 -0.2921E-02  0 -0.1565E-02  0 -0.8504E-03  0  0.4752E-03  0  0.2727E-03
   (  1,146, 88)  (  1,146, 88)  (  1,146, 88)  (  2,146, 88)  (  2,146, 88)
  0 -0.1541E-03  0  0.2143E-03  0  0.2398E-03  0  0.2192E-03  0 -0.1888E-03
   (  2, 95,106)  (  1,146, 88)  (  1,146, 88)  (  1,146, 88)  (  2,146, 88)
  0 -0.1711E-03  0 -0.1334E-03  0 -0.1058E-03  0 -0.8274E-04  0 -0.7392E-04
   (  2,146, 88)  (  2,147, 87)  (  2,147, 87)  (  2,145, 89)  (  2,145, 89)
  0 -0.6542E-04  0  0.7034E-04  0  0.7577E-04  0  0.9284E-04  0  0.9489E-04
   (  1,146, 88)  (  1, 97,104)  (  2,147, 87)  (  2,147, 87)  (  2,145, 89)
  0  0.1071E-03  0 -0.9451E-04  0  0.8845E-04  0  0.1020E-03  0  0.9208E-04
   (  2,145, 89)  (  1, 99,102)  (  1,146, 88)  (  1,146, 88)  (  1,146, 88)
  0 -0.9465E-04  0 -0.8268E-04  0 -0.7110E-04  0  0.5759E-04  0 -0.4647E-04
   (  2,147, 87)  (  2,147, 87)  (  2, 93,108)  (  2,147, 86)  (  2,148, 86)
  1 -0.1383E-02  0 -0.7191E-03  0 -0.3427E-03  0 -0.2292E-03  0 -0.1514E-03
   (  1,121, 64)  (  1,121, 64)  (  1,121, 64)  (  2,215, 35)  (  2,215, 35)
  0  0.1008E-03  0  0.7405E-04  0  0.8789E-04  0  0.1135E-03  0  0.1660E-03
   (  2,123, 63)  (  1,121, 64)  (  1,121, 64)  (  2,215, 35)  (  2,215, 35)
  0  0.2065E-03  0  0.2293E-03  0  0.2177E-03  0  0.1809E-03  0  0.1303E-03
   (  1,122, 39)  (  1,122, 39)  (  1,122, 39)  (  1,122, 39)  (  1,122, 39)
  0  0.8276E-04  0 -0.5494E-04  0 -0.3208E-04  0 -0.3129E-04  0 -0.4368E-04
   (  1,122, 39)  (  2,124, 62)  (  2,124, 62)  (  2,216, 34)  (  2,216, 34)
  0 -0.6114E-04  0 -0.7776E-04  0 -0.8200E-04  0 -0.7454E-04  0 -0.5909E-04
   (  1,122, 39)  (  1,122, 39)  (  1,122, 39)  (  1,122, 39)  (  2,217, 33)
  0  0.4227E-04  0  0.3707E-04  0 -0.5035E-04  0  0.7662E-04  0  0.1037E-03
   (  2,119, 66)  (  1,125, 62)  (  2,124, 62)  (  1,122, 39)  (  1,122, 39)
  1  0.1105E-02  0 -0.5804E-03  0 -0.2978E-03  0  0.2284E-03  0  0.1426E-03
   (  1,152, 93)  (  1,169, 56)  (  1,167, 59)  (  2,167, 59)  (  2,151, 93)
  0  0.8993E-04  0  0.7052E-04  0  0.5517E-04  0 -0.3265E-04  0 -0.3578E-04
   (  2,151, 93)  (  2,168, 58)  (  2,168, 58)  (  2,151, 94)  (  2,151, 93)
  0 -0.4272E-04  0 -0.5768E-04  0 -0.6638E-04  0 -0.6154E-04  0 -0.4217E-04
   (  2,151, 93)  (  2,168, 58)  (  2,168, 58)  (  2,168, 58)  (  2,168, 58)
  0 -0.2500E-04  0 -0.1736E-04  0  0.2373E-04  0  0.3965E-04  0  0.5181E-04
   (  2,150, 94)  (  2,153, 91)  (  2,168, 58)  (  2,168, 58)  (  2,168, 58)
  0  0.5591E-04  0  0.5294E-04  0  0.5472E-04  0  0.5288E-04  0  0.4335E-04
   (  2,168, 58)  (  2,150, 94)  (  2,153, 91)  (  2,153, 91)  (  2,153, 91)
  0  0.2540E-04  0  0.1964E-04  0  0.1518E-04  0 -0.1902E-04  0 -0.2685E-04
   (  2,153, 91)  (  2,167, 58)  (  2,167, 58)  (  2,167, 59)  (  2,153, 91)
  1  0.1305E-02  0  0.7186E-03  0  0.3670E-03  0  0.2263E-03  0  0.1518E-03
   (  1,138, 80)  (  1,138, 80)  (  1,138, 80)  (  2,137, 80)  (  2,137, 80)
  0  0.9445E-04  0  0.7210E-04  0  0.4902E-04  0 -0.3054E-04  0  0.1831E-04
   (  2,137, 80)  (  2,138, 79)  (  2,138, 79)  (  2,137, 81)  (  2,136, 81)
  0 -0.2261E-04  0 -0.4181E-04  0 -0.6164E-04  0 -0.7013E-04  0 -0.6560E-04
   (  2,137, 80)  (  2,138, 79)  (  2,138, 79)  (  2,138, 79)  (  2,138, 79)
  0 -0.5475E-04  0 -0.4522E-04  0 -0.3735E-04  0 -0.2622E-04  0  0.1414E-04
   (  2,136, 81)  (  2,139, 78)  (  2,139, 78)  (  2,139, 78)  (  2,136, 82)
  0  0.9616E-05  1 -0.8476E-03  0 -0.4229E-03  0 -0.2733E-03  0 -0.2105E-03
   (  2,136, 82)  (  1,208, 97)  (  1,208, 97)  (  2,207, 97)  (  2,207, 97)
  0 -0.1422E-03  0 -0.8936E-04  0 -0.6454E-04  0 -0.4288E-04  0 -0.2725E-04
   (  2,207, 97)  (  2,207, 97)  (  2,208, 96)  (  2,208, 96)  (  2,208, 96)
  0  0.1246E-04  0  0.8423E-05  1  0.9461E-03  0  0.4595E-03  0  0.2682E-03
   (  2,207, 98)  (  2,207, 97)  (  1,208, 97)  (  1,208, 97)  (  2,207, 97)
  0  0.2115E-03  0  0.1467E-03  0  0.9274E-04  0  0.6476E-04  0  0.4441E-04
   (  2,207, 97)  (  2,207, 97)  (  2,207, 97)  (  2,208, 96)  (  2,208, 96)
  0  0.2622E-04  0 -0.1423E-04  0 -0.9084E-05  1 -0.9433E-03  0 -0.4471E-03
   (  2,208, 96)  (  2,207, 98)  (  2,207, 97)  (  1,208, 97)  (  1,208, 97)
  0 -0.2656E-03  0 -0.2093E-03  0 -0.1464E-03  0 -0.8989E-04  0 -0.6348E-04
   (  2,207, 97)  (  2,207, 97)  (  2,207, 97)  (  2,207, 97)  (  2,208, 96)
  0 -0.4380E-04  0 -0.2608E-04  0  0.1402E-04  0  0.8641E-05  1  0.9316E-03
   (  2,208, 96)  (  2,208, 96)  (  2,207, 98)  (  2,207, 97)  (  1,208, 97)
  0  0.4332E-03  0  0.2659E-03  0  0.2070E-03  0  0.1457E-03  0  0.9105E-04
   (  1,208, 97)  (  2,207, 97)  (  2,207, 97)  (  2,207, 97)  (  2,207, 97)
  0  0.6411E-04  0  0.4392E-04  0  0.2656E-04  0  0.1430E-04  0  0.8552E-05
   (  2,208, 96)  (  2,208, 96)  (  2,208, 96)  (  2,208, 96)  (  2,206, 98)
  1 -0.9306E-03  0 -0.4292E-03  0 -0.2641E-03  0 -0.2059E-03  0 -0.1456E-03
   (  1,208, 97)  (  1,208, 97)  (  2,207, 97)  (  2,207, 97)  (  2,207, 97)
  0 -0.8925E-04  0 -0.6303E-04  0 -0.4365E-04  0 -0.2643E-04  0 -0.1390E-04
   (  2,207, 97)  (  2,208, 96)  (  2,208, 96)  (  2,208, 96)  (  2,208, 96)
  0 -0.8480E-05  1  0.9309E-03  0  0.4313E-03  0  0.2648E-03  0  0.2061E-03
   (  2,206, 98)  (  1,208, 97)  (  1,208, 97)  (  2,207, 97)  (  2,207, 97)
  0  0.1455E-03  0  0.9065E-04  0  0.6381E-04  0  0.4393E-04  0  0.2677E-04
   (  2,207, 97)  (  2,207, 97)  (  2,208, 96)  (  2,208, 96)  (  2,208, 96)
  0  0.1506E-04  0  0.8582E-05  1 -0.9297E-03  0 -0.4256E-03  0 -0.2629E-03
   (  2,208, 96)  (  2,206, 98)  (  1,208, 97)  (  1,208, 97)  (  2,207, 97)
  0 -0.2043E-03  0 -0.1452E-03  0 -0.8861E-04  0 -0.6266E-04  0 -0.4361E-04
   (  2,207, 97)  (  2,207, 97)  (  2,207, 97)  (  2,208, 96)  (  2,208, 96)
  0 -0.2644E-04  0 -0.1438E-04  0 -0.8464E-05  1  0.9301E-03  0  0.4278E-03
   (  2,208, 96)  (  2,208, 96)  (  2,206, 98)  (  1,208, 97)  (  1,208, 97)
  0  0.2639E-03  0  0.2052E-03  0  0.1452E-03  0  0.8997E-04  0  0.6352E-04
   (  2,207, 97)  (  2,207, 97)  (  2,207, 97)  (  2,207, 97)  (  2,208, 96)
  0  0.4395E-04  0  0.2676E-04  0  0.1556E-04  0  0.8562E-05  1 -0.9289E-03
   (  2,208, 96)  (  2,208, 96)  (  2,208, 96)  (  2,206, 98)  (  1,208, 97)
  0 -0.4220E-03  0 -0.2618E-03  0 -0.2027E-03  0 -0.1448E-03  0 -0.8794E-04
   (  1,208, 97)  (  2,207, 97)  (  2,207, 97)  (  2,207, 97)  (  2,207, 97)
  0 -0.6221E-04  0 -0.4358E-04  0 -0.2636E-04  0 -0.1476E-04  0 -0.8436E-05
   (  2,208, 96)  (  2,208, 96)  (  2,208, 96)  (  2,208, 96)  (  2,206, 98)
  1  0.9292E-03  0  0.4241E-03  0  0.2629E-03  0  0.2040E-03  0  0.1448E-03
   (  1,208, 97)  (  1,208, 97)  (  2,207, 97)  (  2,207, 97)  (  2,207, 97)
  0  0.8932E-04  0  0.6321E-04  0  0.4395E-04  0  0.2664E-04  0  0.1589E-04
   (  2,207, 97)  (  2,208, 96)  (  2,208, 96)  (  2,208, 96)  (  2,208, 96)
  0  0.8537E-05  1 -0.9281E-03  0 -0.4188E-03  0 -0.2609E-03  0 -0.2013E-03
   (  2,206, 98)  (  1,208, 97)  (  1,208, 97)  (  2,207, 97)  (  2,207, 97)
  0 -0.1444E-03  0 -0.8730E-04  0 -0.6171E-04  0 -0.4354E-04  0 -0.2626E-04
   (  2,207, 97)  (  2,207, 97)  (  2,208, 96)  (  2,208, 96)  (  2,208, 96)
  0 -0.1505E-04  0 -0.8412E-05  1  0.9284E-03  0  0.4208E-03  0  0.2620E-03
   (  2,208, 96)  (  2,206, 98)  (  1,208, 97)  (  1,208, 97)  (  2,207, 97)
  0  0.2027E-03  0  0.1445E-03  0  0.8872E-04  0  0.6289E-04  0  0.4394E-04
   (  2,207, 97)  (  2,207, 97)  (  2,207, 97)  (  2,208, 96)  (  2,208, 96)
  0  0.2649E-04  0  0.1612E-04  0  0.8513E-05  1 -0.9275E-03  0 -0.4161E-03
   (  2,208, 96)  (  2,208, 96)  (  2,206, 98)  (  1,208, 97)  (  1,208, 97)
  0 -0.2600E-03  0 -0.2000E-03  0 -0.1440E-03  0 -0.8669E-04  0 -0.6115E-04
   (  2,207, 97)  (  2,207, 97)  (  2,207, 97)  (  2,207, 97)  (  2,208, 96)
  0 -0.4347E-04  0 -0.2614E-04  0 -0.1527E-04  0 -0.8390E-05  1  0.9278E-03
   (  2,208, 96)  (  2,208, 96)  (  2,208, 96)  (  2,206, 98)  (  1,208, 97)
  0  0.4179E-03  0  0.2611E-03  0  0.2015E-03  0  0.1441E-03  0  0.8816E-04
   (  1,208, 97)  (  2,207, 97)  (  2,207, 97)  (  2,207, 97)  (  2,207, 97)
  0  0.6257E-04  0  0.4392E-04  0  0.2633E-04  0  0.1628E-04  0  0.8493E-05
   (  2,208, 96)  (  2,208, 96)  (  2,208, 96)  (  2,208, 96)  (  2,206, 98)
  1 -0.9269E-03  0 -0.4136E-03  0 -0.2592E-03  0 -0.1985E-03  0 -0.1436E-03
   (  1,208, 97)  (  1,208, 97)  (  2,207, 97)  (  2,207, 97)  (  2,207, 97)
  0 -0.8614E-04  0 -0.6055E-04  0 -0.4338E-04  0 -0.2599E-04  0 -0.1539E-04
   (  2,207, 97)  (  2,208, 96)  (  2,208, 96)  (  2,208, 96)  (  2,208, 96)
  0 -0.8370E-05  1  0.9272E-03  0  0.4154E-03  0  0.2603E-03  0  0.2003E-03
   (  2,206, 98)  (  1,208, 97)  (  1,208, 97)  (  2,207, 97)  (  2,207, 97)
  0  0.1437E-03  0  0.8763E-04  0  0.6222E-04  0  0.4390E-04  0  0.2618E-04
   (  2,207, 97)  (  2,207, 97)  (  2,208, 96)  (  2,208, 96)  (  2,208, 96)
  0  0.1637E-04  0  0.8476E-05  1 -0.9264E-03  0 -0.4113E-03  0 -0.2584E-03
   (  2,208, 96)  (  2,206, 98)  (  1,208, 97)  (  1,208, 97)  (  2,207, 97)
  0 -0.1969E-03  0 -0.1431E-03  0 -0.8564E-04  0 -0.5991E-04  0 -0.4326E-04
   (  2,207, 97)  (  2,207, 97)  (  2,207, 97)  (  2,208, 96)  (  2,208, 96)
  0 -0.2582E-04  0 -0.1542E-04  0 -0.8351E-05  1  0.9209E-03  0  0.3935E-03
   (  2,208, 96)  (  2,208, 96)  (  2,206, 98)  (  1,208, 97)  (  1,208, 97)
  0  0.2575E-03  0  0.1986E-03  0  0.1411E-03  0  0.8813E-04  0  0.6129E-04
   (  2,207, 97)  (  2,207, 97)  (  2,207, 97)  (  2,207, 97)  (  2,208, 96)
  0  0.4482E-04  0  0.2623E-04  0  0.1638E-04  0  0.8567E-05  1 -0.9254E-03
   (  2,208, 96)  (  2,208, 96)  (  2,208, 96)  (  2,206, 98)  (  1,208, 97)
  0 -0.4083E-03  0 -0.2575E-03  0 -0.1950E-03  0 -0.1425E-03  0 -0.8492E-04
   (  1,208, 97)  (  2,207, 97)  (  2,207, 97)  (  2,207, 97)  (  2,207, 97)
  0 -0.5912E-04  0 -0.4305E-04  0 -0.2554E-04  0 -0.1527E-04  0 -0.8323E-05
   (  2,208, 96)  (  2,208, 96)  (  2,208, 96)  (  2,208, 96)  (  2,206, 98)
  1  0.9262E-03  0  0.4106E-03  0  0.2586E-03  0  0.1973E-03  0  0.1429E-03
   (  1,208, 97)  (  1,208, 97)  (  2,207, 97)  (  2,207, 97)  (  2,207, 97)
  0  0.8644E-04  0  0.6119E-04  0  0.4380E-04  0  0.2584E-04  0  0.1626E-04
   (  2,207, 97)  (  2,208, 96)  (  2,208, 96)  (  2,208, 96)  (  2,208, 96)
  0  0.8444E-05  1 -0.9255E-03  0 -0.4075E-03  0 -0.2569E-03  0 -0.1934E-03
   (  2,206, 98)  (  1,208, 97)  (  1,208, 97)  (  2,207, 97)  (  2,207, 97)
  0 -0.1421E-03  0 -0.8479E-04  0 -0.5857E-04  0 -0.4297E-04  0 -0.2546E-04
   (  2,207, 97)  (  2,207, 97)  (  2,208, 96)  (  2,208, 96)  (  2,208, 96)
  0 -0.1515E-04  0 -0.8326E-05  1  0.9259E-03  0  0.4094E-03  0  0.2582E-03
   (  2,208, 96)  (  2,206, 98)  (  1,208, 97)  (  1,208, 97)  (  2,207, 97)
  0  0.1965E-03  0  0.1427E-03  0  0.8612E-04  0  0.6087E-04  0  0.4378E-04
   (  2,207, 97)  (  2,207, 97)  (  2,207, 97)  (  2,208, 96)  (  2,208, 96)
  0  0.2577E-04  0  0.1624E-04  0  0.8442E-05  1 -0.9253E-03  0 -0.4062E-03
   (  2,208, 96)  (  2,208, 96)  (  2,206, 98)  (  1,208, 97)  (  1,208, 97)
  0 -0.2564E-03  0 -0.1919E-03  0 -0.1416E-03  0 -0.8448E-04  0 -0.5794E-04
   (  2,207, 97)  (  2,207, 97)  (  2,207, 97)  (  2,207, 97)  (  2,208, 96)
  0 -0.4278E-04  0 -0.2535E-04  0 -0.1490E-04  0 -0.8317E-05  1  0.9257E-03
   (  2,208, 96)  (  2,208, 96)  (  2,208, 96)  (  2,206, 98)  (  1,208, 97)
  0  0.4083E-03  0  0.2577E-03  0  0.1955E-03  0  0.1424E-03  0  0.8585E-04
   (  1,208, 97)  (  2,207, 97)  (  2,207, 97)  (  2,207, 97)  (  2,207, 97)
  0  0.6056E-04  0  0.4374E-04  0  0.2569E-04  0  0.1611E-04  0  0.8440E-05
   (  2,208, 96)  (  2,208, 96)  (  2,208, 96)  (  2,208, 96)  (  2,206, 98)
  1 -0.9251E-03  0 -0.4053E-03  0 -0.2559E-03  0 -0.1907E-03  0 -0.1411E-03
   (  1,208, 97)  (  1,208, 97)  (  2,207, 97)  (  2,207, 97)  (  2,207, 97)
  0 -0.8422E-04  0 -0.5735E-04  0 -0.4257E-04  0 -0.2527E-04  0 -0.1456E-04
   (  2,207, 97)  (  2,208, 96)  (  2,208, 96)  (  2,208, 96)  (  2,208, 96)
  0 -0.8312E-05  1  0.9255E-03  0  0.4075E-03  0  0.2573E-03  0  0.1946E-03
   (  2,206, 98)  (  1,208, 97)  (  1,208, 97)  (  2,207, 97)  (  2,207, 97)
  0  0.1421E-03  0  0.8566E-04  0  0.6034E-04  0  0.4373E-04  0  0.2565E-04
   (  2,207, 97)  (  2,207, 97)  (  2,208, 96)  (  2,208, 96)  (  2,208, 96)
  0  0.1601E-04  0  0.8441E-05
   (  2,208, 96)  (  2,206, 98)



 OUTPUT CONTROL FOR STRESS PERIOD    1   TIME STEP    1
    PRINT HEAD FOR ALL LAYERS
    PRINT BUDGET
    SAVE HEAD FOR ALL LAYERS
    SAVE BUDGET
 UBDSV2 SAVING "   CONSTANT HEAD" ON UNIT  53 AT TIME STEP  1, STRESS PERIOD   1
 UBDSV1 SAVING "FLOW RIGHT FACE " ON UNIT  53 AT TIME STEP  1, STRESS PERIOD   1
 UBDSV1 SAVING "FLOW FRONT FACE " ON UNIT  53 AT TIME STEP  1, STRESS PERIOD   1
 UBDSV1 SAVING "FLOW LOWER FACE " ON UNIT  53 AT TIME STEP  1, STRESS PERIOD   1

         ****FAILED TO MEET SOLVER CONVERGENCE CRITERIA IN TIME STEP    1 OF STRESS PERIOD    1****
1
              HEAD IN LAYER   1 AT END OF TIME STEP   1 IN STRESS PERIOD    1
  ---------------------------------------------------------------------------

            1           2           3           4           5           6           7           8           9          10
           11          12          13          14          15          16          17          18          19          20
           21          22          23          24          25          26          27          28          29          30
           31          32          33          34          35          36          37          38          39          40
           41          42          43          44          45          46          47          48          49          50
           51          52          53          54          55          56          57          58          59          60
           61          62          63          64          65          66          67          68          69          70
           71          72          73          74          75          76          77          78          79          80
           81          82          83          84          85          86          87          88          89          90
           91          92          93          94          95          96          97          98          99         100
          101         102         103         104         105         106         107         108         109         110
          111         112         113         114         115         116         117         118         119         120
          121         122         123         124         125         126         127         128         129         130
          131         132         133         134         135         136         137         138         139         140
          141         142         143         144         145
 ........................................................................................................................
   1  -1000.0     -1000.0     -1000.0     -1000.0     -1000.0     -1000.0     -1000.0     -1000.0     -1000.0     -1000.0    
      -1000.0     -1000.0     -1000.0     -1000.0     -1000.0     -1000.0     -1000.0     -1000.0     -1000.0     -1000.0    
      -1000.0     -1000.0     -1000.0     -1000.0     -1000.0     -1000.0     -1000.0     -1000.0     -1000.0     -1000.0    
      -1000.0     -1000.0     -1000.0     -1000.0     -1000.0     -1000.0     -1000.0     -1000.0     -1000.0     -1000.0    
      -1000.0     -1000.0     -1000.0     -1000.0     -1000.0     -1000.0     -1000.0     -1000.0     -1000.0     -1000.0    
      -1000.0     -1000.0     -1000.0     -1000.0     -1000.0     -1000.0     -1000.0     -1000.0     -1000.0     -1000.0    
      -1000.0     -1000.0     -1000.0     -1000.0     -1000.0     -1000.0     -1000.0     -1000.0     -1000.0     -1000.0    
      -1000.0     -1000.0     -1000.0     -1000.0     -1000.0     -1000.0     -1000.0     -1000.0     -1000.0     -1000.0    
      -1000.0     -1000.0     -1000.0     -1000.0     -1000.0     -1000.0     -1000.0     -1000.0     -1000.0     -1000.0    
      -1000.0     -1000.0     -1000.0     -1000.0     -1000.0     -1000.0     -1000.0     -1000.0     -1000.0     -1000.0    
      -1000.0     -1000.0     -1000.0     -1000.0     -1000.0     -1000.0     -1000.0     -1000.0     -1000.0     -1000.0    
      -1000.0     -1000.0     -1000.0     -1000.0     -1000.0     -1000.0     -1000.0     -1000.0     -1000.0     -1000.0    
      -1000.0     -1000.0     -1000.0     -1000.0     -1000.0     -1000.0     -1000.0     -1000.0     -1000.0     -1000.0    
      -1000.0     -1000.0     -1000.0     -1000.0     -1000.0     -1000.0     -1000.0     -1000.0     -1000.0     -1000.0    
      -1000.0     -1000.0     -1000.0     -1000.0     -1000.0    
   2  -1000.0     -1000.0     -1000.0     -1000.0     -1000.0     -1000.0     -1000.0     -1000.0     -1000.0     -1000.0    
      -1000.0     -1000.0     -1000.0     -1000.0     -1000.0     -1000.0     -1000.0     -1000.0     -1000.0     -1000.0    
      -1000.0     -1000.0     -1000.0     -1000.0     -1000.0     -1000.0     -1000.0     -1000.0     -1000.0     -1000.0    
      -1000.0     -1000.0     -1000.0     -1000.0     -1000.0     -1000.0     -1000.0     -1000.0     -1000.0     -1000.0    
      -1000.0     -1000.0     -1000.0     -1000.0     -1000.0     -1000.0     -1000.0     -1000.0     -1000.0     -1000.0    
      -1000.0     -1000.0     -1000.0     -1000.0     -1000.0     -1000.0     -1000.0     -1000.0     -1000.0     -1000.0    
      -1000.0     -1000.0     -1000.0     -1000.0     -1000.0     -1000.0     -1000.0     -1000.0     -1000.0     -1000.0    
      -1000.0     -1000.0     -1000.0     -1000.0     -1000.0     -1000.0     -1000.0     -1000.0     -1000.0     -1000.0    
      -1000.0     -1000.0     -1000.0     -1000.0     -1000.0     -1000.0     -1000.0     -1000.0     -1000.0     -1000.0    
      -1000.0     -1000.0     -1000.0     -1000.0     -1000.0     -1000.0     -1000.0     -1000.0     -1000.0     -1000.0    
      -1000.0     -1000.0     -1000.0     -1000.0     -1000.0     -1000.0     -1000.0     -1000.0     -1000.0     -1000.0    
      -1000.0     -1000.0     -1000.0     -1000.0     -1000.0     -1000.0     -1000.0     -1000.0     -1000.0     -1000.0    
      -1000.0     -1000.0     -1000.0     -1000.0     -1000.0     -1000.0     -1000.0     -1000.0     -1000.0     -1000.0    
      -1000.0     -1000.0     -1000.0     -1000.0     -1000.0     -1000.0     -1000.0     -1000.0     -1000.0     -1000.0    
      -1000.0     -1000.0     -1000.0     -1000.0     -1000.0    
   3  -1000.0     -1000.0     -1000.0     -1000.0     -1000.0     -1000.0     -1000.0     -1000.0     -1000.0     -1000.0    
      -1000.0     -1000.0     -1000.0     -1000.0     -1000.0     -1000.0     -1000.0     -1000.0     -1000.0     -1000.0    
      -1000.0     -1000.0     -1000.0     -1000.0     -1000.0     -1000.0     -1000.0     -1000.0     -1000.0     -1000.0    
      -1000.0     -1000.0     -1000.0     -1000.0     -1000.0     -1000.0     -1000.0     -1000.0     -1000.0     -1000.0    
      -1000.0     -1000.0     -1000.0     -1000.0     -1000.0     -1000.0     -1000.0     -1000.0     -1000.0     -1000.0    
      -1000.0     -1000.0     -1000.0     -1000.0     -1000.0     -1000.0     -1000.0     -1000.0     -1000.0     -1000.0    
      -1000.0     -1000.0     -1000.0     -1000.0     -1000.0     -1000.0     -1000.0     -1000.0     -1000.0     -1000.0    
      -1000.0     -1000.0     -1000.0     -1000.0     -1000.0     -1000.0     -1000.0     -1000.0     -1000.0     -1000.0    
      -1000.0     -1000.0     -1000.0     -1000.0     -1000.0     -1000.0     -1000.0     -1000.0     -1000.0     -1000.0    
      -1000.0     -1000.0     -1000.0     -1000.0     -1000.0     -1000.0     -1000.0     -1000.0     -1000.0     -1000.0    
      -1000.0     -1000.0     -1000.0     -1000.0     -1000.0     -1000.0     -1000.0     -1000.0     -1000.0     -1000.0    
      -1000.0     -1000.0     -1000.0     -1000.0     -1000.0     -1000.0     -1000.0     -1000.0     -1000.0     -1000.0    
      -1000.0     -1000.0     -1000.0     -1000.0     -1000.0     -1000.0     -1000.0     -1000.0     -1000.0     -1000.0    
      -1000.0     -1000.0     -1000.0     -1000.0     -1000.0     -1000.0     -1000.0     -1000.0     -1000.0     -1000.0    
      -1000.0     -1000.0     -1000.0     -1000.0     -1000.0    
   4  -1000.0     -1000.0     -1000.0     -1000.0     -1000.0     -1000.0     -1000.0     -1000.0     -1000.0     -1000.0    
      -1000.0     -1000.0     -1000.0     -1000.0     -1000.0     -1000.0     -1000.0     -1000.0     -1000.0     -1000.0    
      -1000.0     -1000.0     -1000.0     -1000.0     -1000.0     -1000.0     -1000.0     -1000.0     -1000.0     -1000.0    
      -1000.0     -1000.0     -1000.0     -1000.0     -1000.0     -1000.0     -1000.0     -1000.0     -1000.0     -1000.0    
      -1000.0     -1000.0     -1000.0     -1000.0     -1000.0     -1000.0     -1000.0     -1000.0     -1000.0     -1000.0    
      -1000.0     -1000.0     -1000.0     -1000.0     -1000.0     -1000.0     -1000.0     -1000.0     -1000.0     -1000.0    
      -1000.0     -1000.0     -1000.0     -1000.0     -1000.0     -1000.0     -1000.0     -1000.0     -1000.0     -1000.0    
      -1000.0     -1000.0     -1000.0     -1000.0     -1000.0     -1000.0     -1000.0     -1000.0     -1000.0     -1000.0    
      -1000.0     -1000.0     -1000.0     -1000.0     -1000.0     -1000.0     -1000.0     -1000.0     -1000.0     -1000.0    
      -1000.0     -1000.0     -1000.0     -1000.0     -1000.0     -1000.0     -1000.0     -1000.0     -1000.0     -1000.0    
      -1000.0     -1000.0     -1000.0     -1000.0     -1000.0     -1000.0     -1000.0     -1000.0     -1000.0     -1000.0    
      -1000.0     -1000.0     -1000.0     -1000.0     -1000.0     -1000.0     -1000.0     -1000.0     -1000.0     -1000.0    
      -1000.0     -1000.0     -1000.0     -1000.0     -1000.0     -1000.0     -1000.0     -1000.0     -1000.0     -1000.0    
      -1000.0     -1000.0     -1000.0     -1000.0     -1000.0     -1000.0     -1000.0     -1000.0     -1000.0     -1000.0    
      -1000.0     -1000.0     -1000.0     -1000.0     -1000.0    
   5  -1000.0     -1000.0     -1000.0     -1000.0     -1000.0     -1000.0     -1000.0     -1000.0     -1000.0     -1000.0    
      -1000.0     -1000.0     -1000.0     -1000.0     -1000.0     -1000.0     -1000.0     -1000.0     -1000.0     -1000.0    
      -1000.0     -1000.0     -1000.0     -1000.0     -1000.0     -1000.0     -1000.0     -1000.0     -1000.0     -1000.0    
      -1000.0     -1000.0     -1000.0     -1000.0     -1000.0     -1000.0     -1000.0     -1000.0     -1000.0     -1000.0    
      -1000.0     -1000.0     -1000.0     -1000.0     -1000.0     -1000.0     -1000.0     -1000.0     -1000.0     -1000.0    
      -1000.0     -1000.0     -1000.0     -1000.0     -1000.0     -1000.0     -1000.0     -1000.0     -1000.0     -1000.0    
[...]
        9.941       9.524       9.142       8.794       8.479       8.194       7.937       7.704       7.492       7.301    
        7.137       6.998       6.874       6.761       6.658       6.564       6.477       6.397       6.324       6.256    
        6.193       6.135       6.081       6.030       5.984       5.940       5.899       5.862       5.826       5.793    
        5.762       5.733       5.705       5.680       5.656       5.633       5.612       5.592       5.573       5.555    
        5.537       5.518       5.501       5.484       5.468       5.453       5.439       5.426       5.414       5.403    
        5.392       5.384       5.376       5.371       5.368       5.367       5.370       5.377       5.388       5.403    
        5.419       5.427     -1000.0     -1000.0     -1000.0     -1000.0     -1000.0     -1000.0     -1000.0     -1000.0    
      -1000.0     -1000.0     -1000.0     -1000.0     -1000.0     -1000.0     -1000.0     -1000.0     -1000.0     -1000.0    
      -1000.0     -1000.0     -1000.0     -1000.0     -1000.0     -1000.0     -1000.0     -1000.0     -1000.0     -1000.0    
      -1000.0     -1000.0     -1000.0     -1000.0     -1000.0    
 242  -1000.0     -1000.0     -1000.0     -1000.0     -1000.0     -1000.0     -1000.0     -1000.0     -1000.0     -1000.0    
      -1000.0     -1000.0     -1000.0     -1000.0     -1000.0     -1000.0     -1000.0     -1000.0     -1000.0     -1000.0    
      -1000.0     -1000.0     -1000.0     -1000.0     -1000.0     -1000.0     -1000.0     -1000.0     -1000.0     -1000.0    
      -1000.0     -1000.0       17.88       17.67       17.38       17.02       16.61       16.18       15.71       15.22    
        14.71       14.18       13.63       13.06       12.49       11.90       11.32       10.75       10.20       9.678    
        9.197       8.759       8.364       8.011       7.696       7.415       7.163       6.937       6.735       6.553    
        6.397       6.266       6.150       6.045       5.950       5.862       5.783       5.709       5.642       5.580    
        5.522       5.469       5.420       5.374       5.332       5.292       5.255       5.221       5.189       5.159    
        5.131       5.104       5.080       5.057       5.035       5.015       4.996       4.977       4.960       4.944    
        4.928       4.911       4.895       4.881       4.867       4.854       4.841       4.830       4.820       4.811    
        4.803       4.797       4.794       4.792       4.794       4.799       4.808       4.822       4.841       4.864    
        4.888       4.902     -1000.0     -1000.0     -1000.0     -1000.0     -1000.0     -1000.0     -1000.0     -1000.0    
      -1000.0     -1000.0     -1000.0     -1000.0     -1000.0     -1000.0     -1000.0     -1000.0     -1000.0     -1000.0    
      -1000.0     -1000.0     -1000.0     -1000.0     -1000.0     -1000.0     -1000.0     -1000.0     -1000.0     -1000.0    
      -1000.0     -1000.0     -1000.0     -1000.0     -1000.0    
 243  -1000.0     -1000.0     -1000.0     -1000.0     -1000.0     -1000.0     -1000.0     -1000.0     -1000.0     -1000.0    
      -1000.0     -1000.0     -1000.0     -1000.0     -1000.0     -1000.0     -1000.0     -1000.0     -1000.0     -1000.0    
      -1000.0     -1000.0     -1000.0     -1000.0     -1000.0     -1000.0     -1000.0     -1000.0     -1000.0     -1000.0    
      -1000.0     -1000.0       17.66       17.42       17.14       16.76       16.36       15.91       15.42       14.91    
        14.37       13.81       13.22       12.61       11.99       11.36       10.72       10.09       9.486       8.921    
        8.408       7.949       7.544       7.189       6.877       6.603       6.362       6.147       5.956       5.787    
        5.642       5.521       5.415       5.319       5.232       5.153       5.081       5.014       4.954       4.898    
        4.846       4.799       4.755       4.714       4.676       4.641       4.608       4.577       4.549       4.522    
        4.497       4.474       4.452       4.431       4.412       4.394       4.377       4.361       4.346       4.332    
        4.317       4.302       4.288       4.276       4.263       4.252       4.242       4.232       4.224       4.217    
        4.212       4.209       4.208       4.210       4.215       4.225       4.240       4.261       4.288       4.320    
        4.352       4.370     -1000.0     -1000.0     -1000.0     -1000.0     -1000.0     -1000.0     -1000.0     -1000.0    
      -1000.0     -1000.0     -1000.0     -1000.0     -1000.0     -1000.0     -1000.0     -1000.0     -1000.0     -1000.0    
      -1000.0     -1000.0     -1000.0     -1000.0     -1000.0     -1000.0     -1000.0     -1000.0     -1000.0     -1000.0    
      -1000.0     -1000.0     -1000.0     -1000.0     -1000.0    
 244  -1000.0     -1000.0     -1000.0     -1000.0     -1000.0     -1000.0     -1000.0     -1000.0     -1000.0     -1000.0    
      -1000.0     -1000.0     -1000.0     -1000.0     -1000.0     -1000.0     -1000.0     -1000.0     -1000.0     -1000.0    
      -1000.0     -1000.0     -1000.0     -1000.0     -1000.0     -1000.0     -1000.0     -1000.0     -1000.0     -1000.0    
      -1000.0     -1000.0     -1000.0       17.21       16.97       16.54       16.13       15.68       15.15       14.62    
        14.05       13.45       12.83       12.18       11.50       10.81       10.11       9.408       8.733       8.112    
        7.562       7.084       6.673       6.322       6.020       5.759       5.532       5.333       5.157       5.003    
        4.872       4.763       4.668       4.582       4.505       4.435       4.371       4.313       4.259       4.210    
        4.165       4.124       4.085       4.049       4.016       3.986       3.957       3.930       3.906       3.882    
        3.861       3.840       3.821       3.804       3.787       3.771       3.756       3.743       3.730       3.717    
        3.704       3.692       3.680       3.669       3.659       3.649       3.640       3.633       3.627       3.621    
        3.618       3.617       3.618       3.623       3.632       3.646       3.666       3.694       3.729       3.770    
        3.812       3.837     -1000.0     -1000.0     -1000.0     -1000.0     -1000.0     -1000.0     -1000.0     -1000.0    
      -1000.0     -1000.0     -1000.0     -1000.0     -1000.0     -1000.0     -1000.0     -1000.0     -1000.0     -1000.0    
      -1000.0     -1000.0     -1000.0     -1000.0     -1000.0     -1000.0     -1000.0     -1000.0     -1000.0     -1000.0    
      -1000.0     -1000.0     -1000.0     -1000.0     -1000.0    
 245  -1000.0     -1000.0     -1000.0     -1000.0     -1000.0     -1000.0     -1000.0     -1000.0     -1000.0     -1000.0    
      -1000.0     -1000.0     -1000.0     -1000.0     -1000.0     -1000.0     -1000.0     -1000.0     -1000.0     -1000.0    
      -1000.0     -1000.0     -1000.0     -1000.0     -1000.0     -1000.0     -1000.0     -1000.0     -1000.0     -1000.0    
      -1000.0     -1000.0     -1000.0     -1000.0     -1000.0       16.26       15.97       15.51       14.88       14.36    
        13.77       13.12       12.46       11.77       11.03       10.28       9.493       8.697       7.923       7.230    
        6.641       6.149       5.742       5.403       5.119       4.878       4.672       4.494       4.338       4.202    
        4.087       3.993       3.910       3.836       3.770       3.710       3.655       3.605       3.560       3.518    
        3.480       3.444       3.412       3.381       3.353       3.327       3.303       3.281       3.260       3.240    
        3.222       3.205       3.189       3.174       3.160       3.146       3.134       3.122       3.111       3.101    
        3.090       3.080       3.070       3.061       3.052       3.044       3.037       3.031       3.027       3.023    
        3.021       3.022       3.025       3.032       3.043       3.060       3.084       3.118       3.163       3.217    
        3.272       3.308     -1000.0     -1000.0     -1000.0     -1000.0     -1000.0     -1000.0     -1000.0     -1000.0    
      -1000.0     -1000.0     -1000.0     -1000.0     -1000.0     -1000.0     -1000.0     -1000.0     -1000.0     -1000.0    
      -1000.0     -1000.0     -1000.0     -1000.0     -1000.0     -1000.0     -1000.0     -1000.0     -1000.0     -1000.0    
      -1000.0     -1000.0     -1000.0     -1000.0     -1000.0    
 246  -1000.0     -1000.0     -1000.0     -1000.0     -1000.0     -1000.0     -1000.0     -1000.0     -1000.0     -1000.0    
      -1000.0     -1000.0     -1000.0     -1000.0     -1000.0     -1000.0     -1000.0     -1000.0     -1000.0     -1000.0    
      -1000.0     -1000.0     -1000.0     -1000.0     -1000.0     -1000.0     -1000.0     -1000.0     -1000.0     -1000.0    
      -1000.0     -1000.0     -1000.0     -1000.0     -1000.0     -1000.0     -1000.0     -1000.0       14.51       14.15    
        13.57       12.79       12.13       11.41       10.58       9.761       8.889       7.960       7.030       6.244    
        5.619       5.128       4.740       4.428       4.173       3.961       3.783       3.631       3.499       3.385    
        3.289       3.211       3.142       3.081       3.027       2.977       2.933       2.892       2.855       2.821    
        2.790       2.761       2.735       2.710       2.687       2.666       2.647       2.628       2.612       2.596    
        2.581       2.567       2.554       2.542       2.531       2.520       2.510       2.501       2.492       2.483    
        2.475       2.466       2.458       2.451       2.444       2.438       2.433       2.428       2.425       2.423    
        2.422       2.423       2.427       2.435       2.447       2.465       2.493       2.531       2.585       2.656    
        2.733       2.796     -1000.0     -1000.0     -1000.0     -1000.0     -1000.0     -1000.0     -1000.0     -1000.0    
      -1000.0     -1000.0     -1000.0     -1000.0     -1000.0     -1000.0     -1000.0     -1000.0     -1000.0     -1000.0    
      -1000.0     -1000.0     -1000.0     -1000.0     -1000.0     -1000.0     -1000.0     -1000.0     -1000.0     -1000.0    
      -1000.0     -1000.0     -1000.0     -1000.0     -1000.0    
 247  -1000.0     -1000.0     -1000.0     -1000.0     -1000.0     -1000.0     -1000.0     -1000.0     -1000.0     -1000.0    
      -1000.0     -1000.0     -1000.0     -1000.0     -1000.0     -1000.0     -1000.0     -1000.0     -1000.0     -1000.0    
      -1000.0     -1000.0     -1000.0     -1000.0     -1000.0     -1000.0     -1000.0     -1000.0     -1000.0     -1000.0    
      -1000.0     -1000.0     -1000.0     -1000.0     -1000.0     -1000.0     -1000.0     -1000.0     -1000.0     -1000.0    
      -1000.0       12.33       11.86       11.14       10.14       9.292       8.341       7.223       5.989       5.092    
        4.460       4.002       3.658       3.393       3.181       3.010       2.867       2.746       2.643       2.553    
        2.479       2.418       2.366       2.319       2.277       2.239       2.205       2.174       2.146       2.120    
        2.096       2.074       2.054       2.036       2.019       2.003       1.988       1.974       1.961       1.949    
        1.938       1.928       1.918       1.909       1.900       1.892       1.884       1.877       1.871       1.864    
        1.858       1.851       1.845       1.840       1.835       1.830       1.826       1.823       1.821       1.820    
        1.820       1.821       1.825       1.833       1.844       1.862       1.888       1.928       1.987       2.074    
        2.190       2.327     -1000.0     -1000.0     -1000.0     -1000.0     -1000.0     -1000.0     -1000.0     -1000.0    
      -1000.0     -1000.0     -1000.0     -1000.0     -1000.0     -1000.0     -1000.0     -1000.0     -1000.0     -1000.0    
      -1000.0     -1000.0     -1000.0     -1000.0     -1000.0     -1000.0     -1000.0     -1000.0     -1000.0     -1000.0    
      -1000.0     -1000.0     -1000.0     -1000.0     -1000.0    
 248  -1000.0     -1000.0     -1000.0     -1000.0     -1000.0     -1000.0     -1000.0     -1000.0     -1000.0     -1000.0    
      -1000.0     -1000.0     -1000.0     -1000.0     -1000.0     -1000.0     -1000.0     -1000.0     -1000.0     -1000.0    
      -1000.0     -1000.0     -1000.0     -1000.0     -1000.0     -1000.0     -1000.0     -1000.0     -1000.0     -1000.0    
      -1000.0     -1000.0     -1000.0     -1000.0     -1000.0     -1000.0     -1000.0     -1000.0     -1000.0     -1000.0    
      -1000.0     -1000.0     -1000.0     -1000.0       9.533       8.928       7.956       6.597       4.606       3.671    
        3.123       2.758       2.497       2.301       2.149       2.027       1.927       1.843       1.771       1.710    
        1.659       1.618       1.582       1.550       1.522       1.496       1.473       1.452       1.433       1.416    
        1.400       1.385       1.371       1.359       1.347       1.337       1.327       1.317       1.309       1.301    
        1.293       1.286       1.280       1.274       1.268       1.262       1.257       1.253       1.248       1.244    
        1.239       1.235       1.231       1.228       1.224       1.221       1.219       1.217       1.215       1.215    
        1.215       1.216       1.220       1.225       1.234       1.248       1.270       1.304       1.357       1.446    
        1.604       1.976     -1000.0     -1000.0     -1000.0     -1000.0     -1000.0     -1000.0     -1000.0     -1000.0    
      -1000.0     -1000.0     -1000.0     -1000.0     -1000.0     -1000.0     -1000.0     -1000.0     -1000.0     -1000.0    
      -1000.0     -1000.0     -1000.0     -1000.0     -1000.0     -1000.0     -1000.0     -1000.0     -1000.0     -1000.0    
      -1000.0     -1000.0     -1000.0     -1000.0     -1000.0    
 249  -1000.0     -1000.0     -1000.0     -1000.0     -1000.0     -1000.0     -1000.0     -1000.0     -1000.0     -1000.0    
      -1000.0     -1000.0     -1000.0     -1000.0     -1000.0     -1000.0     -1000.0     -1000.0     -1000.0     -1000.0    
      -1000.0     -1000.0     -1000.0     -1000.0     -1000.0     -1000.0     -1000.0     -1000.0     -1000.0     -1000.0    
      -1000.0     -1000.0     -1000.0     -1000.0     -1000.0     -1000.0     -1000.0     -1000.0     -1000.0     -1000.0    
      -1000.0     -1000.0     -1000.0     -1000.0     -1000.0     -1000.0     -1000.0     -1000.0       2.157       1.858    
        1.598       1.407       1.267       1.164       1.084       1.020      0.9683      0.9252      0.8887      0.8575    
       0.8317      0.8107      0.7925      0.7764      0.7621      0.7492      0.7376      0.7270      0.7174      0.7087    
       0.7006      0.6932      0.6864      0.6802      0.6743      0.6690      0.6640      0.6593      0.6550      0.6510    
       0.6472      0.6437      0.6404      0.6373      0.6344      0.6317      0.6292      0.6268      0.6245      0.6224    
       0.6201      0.6180      0.6160      0.6142      0.6125      0.6110      0.6098      0.6088      0.6081      0.6078    
       0.6080      0.6089      0.6107      0.6139      0.6189      0.6266      0.6388      0.6578      0.6878      0.7333    
       0.7846     -1000.0     -1000.0     -1000.0     -1000.0     -1000.0     -1000.0     -1000.0     -1000.0     -1000.0    
      -1000.0     -1000.0     -1000.0     -1000.0     -1000.0     -1000.0     -1000.0     -1000.0     -1000.0     -1000.0    
      -1000.0     -1000.0     -1000.0     -1000.0     -1000.0     -1000.0     -1000.0     -1000.0     -1000.0     -1000.0    
      -1000.0     -1000.0     -1000.0     -1000.0     -1000.0    
 250    0.000       0.000       0.000       0.000       0.000       0.000       0.000       0.000       0.000       0.000    
        0.000       0.000       0.000       0.000       0.000       0.000       0.000       0.000       0.000       0.000    
        0.000       0.000       0.000       0.000       0.000       0.000       0.000       0.000       0.000       0.000    
        0.000       0.000       0.000       0.000       0.000       0.000       0.000       0.000       0.000       0.000    
        0.000       0.000       0.000       0.000       0.000       0.000       0.000       0.000       0.000       0.000    
        0.000       0.000       0.000       0.000       0.000       0.000       0.000       0.000       0.000       0.000    
        0.000       0.000       0.000       0.000       0.000       0.000       0.000       0.000       0.000       0.000    
        0.000       0.000       0.000       0.000       0.000       0.000       0.000       0.000       0.000       0.000    
        0.000       0.000       0.000       0.000       0.000       0.000       0.000       0.000       0.000       0.000    
        0.000       0.000       0.000       0.000       0.000       0.000       0.000       0.000       0.000       0.000    
        0.000       0.000       0.000       0.000       0.000       0.000       0.000       0.000       0.000       0.000    
        0.000       0.000       0.000       0.000       0.000       0.000       0.000       0.000       0.000       0.000    
        0.000       0.000       0.000       0.000       0.000       0.000       0.000       0.000       0.000       0.000    
        0.000       0.000       0.000       0.000       0.000       0.000       0.000       0.000       0.000       0.000    
        0.000       0.000       0.000       0.000       0.000    

 HEAD WILL BE SAVED ON UNIT   51 AT END OF TIME STEP    1, STRESS PERIOD    1
1
  VOLUMETRIC BUDGET FOR ENTIRE MODEL AT END OF TIME STEP    1, STRESS PERIOD   1
  ------------------------------------------------------------------------------

     CUMULATIVE VOLUMES      L**3       RATES FOR THIS TIME STEP      L**3/T
     ------------------                 ------------------------

           IN:                                      IN:
           ---                                      ---
             STORAGE =           0.0000               STORAGE =           0.0000
       CONSTANT HEAD =           0.0000         CONSTANT HEAD =           0.0000
               WELLS =           0.0000                 WELLS =           0.0000
            RECHARGE =     2665000.0000              RECHARGE =     2665000.0000

            TOTAL IN =     2665000.0000              TOTAL IN =     2665000.0000

          OUT:                                     OUT:
          ----                                     ----
             STORAGE =           0.0000               STORAGE =           0.0000
       CONSTANT HEAD =     2650000.0000         CONSTANT HEAD =     2650000.0000
               WELLS =       15000.0000                 WELLS =       15000.0000
            RECHARGE =           0.0000              RECHARGE =           0.0000

           TOTAL OUT =     2665000.0000             TOTAL OUT =     2665000.0000

            IN - OUT =           0.0000              IN - OUT =           0.0000

 PERCENT DISCREPANCY =           0.00     PERCENT DISCREPANCY =           0.00






         TIME SUMMARY AT END OF TIME STEP    1 IN STRESS PERIOD    1
                    SECONDS     MINUTES      HOURS       DAYS        YEARS
                    -----------------------------------------------------------
   TIME STEP LENGTH  86400.      1440.0      24.000      1.0000     2.73785E-03
 STRESS PERIOD TIME  86400.      1440.0      24.000      1.0000     2.73785E-03
         TOTAL TIME  86400.      1440.0      24.000      1.0000     2.73785E-03
1
 FAILURE TO MEET SOLVER CONVERGENCE CRITERIA
 BUDGET PERCENT DISCREPANCY IS    0.0000
 CONTINUING EXECUTION

 Run end date and time (yyyy/mm/dd hh:mm:ss): 2022/02/25 13:09:06
 Elapsed run time:  1.286 Seconds

