                                  MODFLOW-2005     
      U.S. GEOLOGICAL SURVEY MODULAR FINITE-DIFFERENCE GROUND-WATER FLOW MODEL
                            VERSION 1.12.00 2/3/2017

 LIST FILE: ocotillo.list
                         UNIT    2

 OPENING ocotillo.dis
 FILE TYPE:DIS   UNIT   11   STATUS:OLD    
 FORMAT:FORMATTED              ACCESS:SEQUENTIAL          

 OPENING ocotillo.bas
 FILE TYPE:BAS6   UNIT   13   STATUS:OLD    
 FORMAT:FORMATTED              ACCESS:SEQUENTIAL          

 OPENING ocotillo.lpf
 FILE TYPE:LPF   UNIT   15   STATUS:OLD    
 FORMAT:FORMATTED              ACCESS:SEQUENTIAL          

 OPENING ocotillo.oc
 FILE TYPE:OC   UNIT   14   STATUS:OLD    
 FORMAT:FORMATTED              ACCESS:SEQUENTIAL          

 OPENING ocotillo.pcg
 FILE TYPE:PCG   UNIT   27   STATUS:OLD    
 FORMAT:FORMATTED              ACCESS:SEQUENTIAL          

 OPENING ocotillo.rch
 FILE TYPE:RCH   UNIT   19   STATUS:OLD    
 FORMAT:FORMATTED              ACCESS:SEQUENTIAL          

 OPENING ocotillo.ghb
 FILE TYPE:GHB   UNIT   23   STATUS:OLD    
 FORMAT:FORMATTED              ACCESS:SEQUENTIAL          

 OPENING ocotillo.cbc
 FILE TYPE:DATA(BINARY)   UNIT   53   STATUS:REPLACE
 FORMAT:BINARY                 ACCESS:SEQUENTIAL          

 OPENING ocotillo.hds
 FILE TYPE:DATA(BINARY)   UNIT   51   STATUS:REPLACE
 FORMAT:BINARY                 ACCESS:SEQUENTIAL          

 BAS -- BASIC PACKAGE, VERSION 7, 5/2/2005 INPUT READ FROM UNIT   13
 
 MODFLOW was compiled using mixed precision
 Precision of REAL variables:           6
 Precision of DOUBLE PRECISION variables:          15

 DISCRETIZATION INPUT DATA READ FROM UNIT   11
 # DIS package for  MODFLOW-2005, generated by Flopy.
    2 LAYERS       250 ROWS       145 COLUMNS
    1 STRESS PERIOD(S) IN SIMULATION
 MODEL TIME UNIT IS YEARS
 MODEL LENGTH UNIT IS METERS
  Confining bed flag for each layer:
   1   0

                     DELR =   1000.00    

                     DELC =   1000.00    



           TOP ELEVATION OF LAYER 1
 READING ON UNIT   11 WITH FORMAT: (145E15.6)          



             MODEL LAYER BOTTOM EL. FOR LAYER   1
 READING ON UNIT   11 WITH FORMAT: (145E15.6)          



           BOT. EL. OF QUASI-3D BED FOR LAYER   1
 READING ON UNIT   11 WITH FORMAT: (145E15.6)          



             MODEL LAYER BOTTOM EL. FOR LAYER   2
 READING ON UNIT   11 WITH FORMAT: (145E15.6)          


 STRESS PERIOD     LENGTH       TIME STEPS     MULTIPLIER FOR DELT    SS FLAG
 ----------------------------------------------------------------------------
        1         1.000000          1                    1.000         SS

 STEADY-STATE SIMULATION



 
 # BAS6 package for  MODFLOW-2005, generated by Flopy.                           
 THE FREE FORMAT OPTION HAS BEEN SELECTED



                     BOUNDARY ARRAY FOR LAYER   1
 READING ON UNIT   13 WITH FORMAT: (145I10)            



                     BOUNDARY ARRAY FOR LAYER   2
 READING ON UNIT   13 WITH FORMAT: (145I10)            

 AQUIFER HEAD WILL BE SET TO  -999.99     AT ALL NO-FLOW NODES (IBOUND=0).



                       INITIAL HEAD FOR LAYER   1
 READING ON UNIT   13 WITH FORMAT: (145E15.6)          



                       INITIAL HEAD FOR LAYER   2
 READING ON UNIT   13 WITH FORMAT: (145E15.6)          
 # OC package for  MODFLOW-2005, generated by Flopy.

 OUTPUT CONTROL IS SPECIFIED ONLY AT TIME STEPS FOR WHICH OUTPUT IS DESIRED
 COMPACT CELL-BY-CELL BUDGET FILES WILL BE WRITTEN
 AUXILIARY DATA WILL BE SAVED IN CELL-BY-CELL BUDGET FILES
 HEAD PRINT FORMAT CODE IS   0    DRAWDOWN PRINT FORMAT CODE IS   0
 HEADS WILL BE SAVED ON UNIT   51    DRAWDOWNS WILL BE SAVED ON UNIT    0

 LPF -- LAYER-PROPERTY FLOW PACKAGE, VERSION 7, 5/2/2005
         INPUT READ FROM UNIT   15
 # LPF package for  MODFLOW-2005, generated by Flopy.
 CELL-BY-CELL FLOWS WILL BE SAVED ON UNIT   53
 HEAD AT CELLS THAT CONVERT TO DRY= -1.00000E+30
 No named parameters

   LAYER FLAGS:
 LAYER       LAYTYP        LAYAVG         CHANI        LAYVKA        LAYWET
 ---------------------------------------------------------------------------
    1             1             0     0.000E+00             0             0
    2             0             0     0.000E+00             0             0

   INTERPRETATION OF LAYER FLAGS:
                        INTERBLOCK     HORIZONTAL    DATA IN
         LAYER TYPE   TRANSMISSIVITY   ANISOTROPY   ARRAY VKA   WETTABILITY
 LAYER      (LAYTYP)      (LAYAVG)       (CHANI)      (LAYVKA)      (LAYWET)
 ---------------------------------------------------------------------------
    1   CONVERTIBLE      HARMONIC      VARIABLE    VERTICAL K  NON-WETTABLE
    2      CONFINED      HARMONIC      VARIABLE    VERTICAL K  NON-WETTABLE

 WETTING CAPABILITY IS NOT ACTIVE IN ANY LAYER



              HYD. COND. ALONG ROWS FOR LAYER   1
 READING ON UNIT   15 WITH FORMAT: (145E15.6)          

   HORIZ. ANI. (COL./ROW) =   1.00000     FOR LAYER   1



                VERTICAL HYD. COND. FOR LAYER   1
 READING ON UNIT   15 WITH FORMAT: (145E15.6)          

 QUASI3D VERT. HYD. COND. =  3.250000E-05 FOR LAYER   1



              HYD. COND. ALONG ROWS FOR LAYER   2
 READING ON UNIT   15 WITH FORMAT: (145E15.6)          

   HORIZ. ANI. (COL./ROW) =   1.00000     FOR LAYER   2



                VERTICAL HYD. COND. FOR LAYER   2
 READING ON UNIT   15 WITH FORMAT: (145E15.6)          

 GHB -- GENERAL-HEAD BOUNDARY PACKAGE, VERSION 7, 5/2/2005
         INPUT READ FROM UNIT   23
 # GHB package for  MODFLOW-2005, generated by Flopy.
 No named parameters
 MAXIMUM OF    114 ACTIVE GHB CELLS AT ONE TIME


     0 GHB parameters

 RCH -- RECHARGE PACKAGE, VERSION 7, 5/2/2005 INPUT READ FROM UNIT   19
 # RCH package for  MODFLOW-2005, generated by Flopy.
 No named parameters
 OPTION 3 -- RECHARGE TO HIGHEST ACTIVE NODE IN EACH VERTICAL COLUMN


     0 Recharge parameters

 PCG -- CONJUGATE-GRADIENT SOLUTION PACKAGE, VERSION 7, 5/2/2005
 # PCG package for  MODFLOW-2005, generated by Flopy.
 MAXIMUM OF     50 CALLS OF SOLUTION ROUTINE
 MAXIMUM OF     30 INTERNAL ITERATIONS PER CALL TO SOLUTION ROUTINE
 MATRIX PRECONDITIONING TYPE :    1



                                    SOLUTION BY THE CONJUGATE-GRADIENT METHOD
                                   -------------------------------------------
                    MAXIMUM NUMBER OF CALLS TO PCG ROUTINE =       50
                        MAXIMUM ITERATIONS PER CALL TO PCG =       30
                               MATRIX PRECONDITIONING TYPE =        1
        RELAXATION FACTOR (ONLY USED WITH PRECOND. TYPE 1) =    0.10000E+01
 PARAMETER OF POLYNOMIAL PRECOND. = 2 (2) OR IS CALCULATED :        0
                         HEAD CHANGE CRITERION FOR CLOSURE =    0.10000E-02
                     RESIDUAL CHANGE CRITERION FOR CLOSURE =    0.10000E-04
            PCG HEAD AND RESIDUAL CHANGE PRINTOUT INTERVAL =      999
     PRINTING FROM SOLVER IS LIMITED(1) OR SUPPRESSED (>1) =        3
                            STEADY-STATE DAMPING PARAMETER =    0.50000E+00
                               TRANSIENT DAMPING PARAMETER =    0.50000E+00
1
                            STRESS PERIOD NO.    1, LENGTH =   1.000000    
                            -----------------------------------------------

                              NUMBER OF TIME STEPS =     1

                               MULTIPLIER FOR DELT =     1.000

                            INITIAL TIME STEP SIZE =   1.000000    

 BOUND. NO. LAYER   ROW   COL     STAGE      CONDUCTANCE         
 ----------------------------------------------------------------
      1      1    250     52       1435.           60.10    
      2      2    250     52       1410.           30.00    
      3      1    250     53       1435.           60.10    
      4      2    250     53       1410.           30.00    
      5      1    250     54       1435.           60.10    
      6      2    250     54       1410.           30.00    
      7      1    250     55       1435.           60.10    
      8      2    250     55       1410.           30.00    
      9      1    250     56       1435.           60.10    
     10      2    250     56       1410.           30.00    
     11      1    250     57       1435.           60.10    
     12      2    250     57       1410.           30.00    
     13      1    250     58       1435.           60.10    
     14      2    250     58       1410.           30.00    
     15      1    250     59       1435.           60.10    
     16      2    250     59       1410.           30.00    
     17      1    250     60       1435.           60.10    
     18      2    250     60       1410.           30.00    
     19      1    250     61       1435.           60.10    
     20      2    250     61       1410.           30.00    
     21      1    250     62       1435.           60.10    
     22      2    250     62       1410.           30.00    
     23      1    250     63       1435.           60.10    
     24      2    250     63       1410.           30.00    
     25      1    250     64       1435.           60.10    
     26      2    250     64       1410.           30.00    
     27      1    250     65       1435.           60.10    
     28      2    250     65       1410.           30.00    
     29      1    250     66       1435.           60.10    
     30      2    250     66       1410.           30.00    
     31      1    250     67       1435.           60.10    
     32      2    250     67       1410.           30.00    
     33      1    250     68       1435.           60.10    
     34      2    250     68       1410.           30.00    
     35      1    250     69       1435.           60.10    
     36      2    250     69       1410.           30.00    
     37      1    250     70       1435.           60.10    
     38      2    250     70       1410.           30.00    
     39      1    250     71       1435.           60.10    
     40      2    250     71       1410.           30.00    
     41      1    250     72       1435.           60.10    
     42      2    250     72       1410.           30.00    
     43      1    250     73       1435.           60.10    
     44      2    250     73       1410.           30.00    
     45      1    250     74       1435.           60.10    
     46      2    250     74       1410.           30.00    
     47      1    250     75       1435.           60.10    
     48      2    250     75       1410.           30.00    
     49      1    250     76       1435.           60.10    
     50      2    250     76       1410.           30.00    
     51      1    250     77       1435.           60.10    
     52      2    250     77       1410.           30.00    
     53      1    250     78       1435.           60.10    
     54      2    250     78       1410.           30.00    
     55      1    250     79       1435.           60.10    
     56      2    250     79       1410.           30.00    
     57      1    250     80       1435.           60.10    
     58      2    250     80       1410.           30.00    
     59      1    250     81       1435.           60.10    
     60      2    250     81       1410.           30.00    
     61      1    250     82       1435.           60.10    
     62      2    250     82       1410.           30.00    
     63      1    250     83       1435.           60.10    
     64      2    250     83       1410.           30.00    
     65      1    250     84       1435.           60.10    
     66      2    250     84       1410.           30.00    
     67      1    250     85       1435.           60.10    
     68      2    250     85       1410.           30.00    
     69      1    250     86       1435.           60.10    
     70      2    250     86       1410.           30.00    
     71      1    250     87       1435.           60.10    
     72      2    250     87       1410.           30.00    
     73      1    250     88       1435.           60.10    
     74      2    250     88       1410.           30.00    
     75      1    250     89       1435.           60.10    
     76      2    250     89       1410.           30.00    
     77      1    250     90       1435.           60.10    
     78      2    250     90       1410.           30.00    
     79      1    250     91       1435.           60.10    
     80      2    250     91       1410.           30.00    
     81      1    250     92       1435.           60.10    
     82      2    250     92       1410.           30.00    
     83      1    250     93       1435.           60.10    
     84      2    250     93       1410.           30.00    
     85      1    250     94       1435.           60.10    
     86      2    250     94       1410.           30.00    
     87      1    250     95       1435.           60.10    
     88      2    250     95       1410.           30.00    
     89      1    250     96       1435.           60.10    
     90      2    250     96       1410.           30.00    
     91      1    250     97       1435.           60.10    
     92      2    250     97       1410.           30.00    
     93      1    250     98       1435.           60.10    
     94      2    250     98       1410.           30.00    
     95      1    250     99       1435.           60.10    
     96      2    250     99       1410.           30.00    
     97      1    250    100       1435.           60.10    
     98      2    250    100       1410.           30.00    
     99      1    250    101       1435.           60.10    
    100      2    250    101       1410.           30.00    
    101      1    250    102       1435.           60.10    
    102      2    250    102       1410.           30.00    
    103      1    250    103       1435.           60.10    
    104      2    250    103       1410.           30.00    
    105      1    250    104       1435.           60.10    
    106      2    250    104       1410.           30.00    
    107      1    250    105       1435.           60.10    
    108      2    250    105       1410.           30.00    
    109      1    250    106       1435.           60.10    
    110      2    250    106       1410.           30.00    
    111      1    250    107       1435.           60.10    
    112      2    250    107       1410.           30.00    
    113      1    250    108       1435.           60.10    
    114      2    250    108       1410.           30.00    

    114 GHB CELLS



                           RECHARGE
 READING ON UNIT   19 WITH FORMAT: (145E15.6)          
 
 SOLVING FOR HEAD 

 MAXIMUM HEAD CHANGE FOR EACH ITERATION (1 INDICATES THE FIRST INNER ITERATION):

    HEAD CHANGE    HEAD CHANGE    HEAD CHANGE    HEAD CHANGE    HEAD CHANGE 
   LAYER,ROW,COL  LAYER,ROW,COL  LAYER,ROW,COL  LAYER,ROW,COL  LAYER,ROW,COL
 ---------------------------------------------------------------------------
  1  -235.4      0  -170.2      0  -136.1      0   142.1      0  -110.7    
   (  2,237, 26)  (  2,127,102)  (  2,125,105)  (  2, 55,106)  (  2, 57,106)
  0  -61.96      0  -40.67      0  -30.11      0  -24.17      0  -33.63    
   (  2, 99,102)  (  2, 97,104)  (  2,124,106)  (  2,100,101)  (  2, 55,106)
  0   40.39      0   30.02      0   42.52      0   55.65      0   80.31    
   (  2, 55,106)  (  1, 55,106)  (  1, 95,106)  (  1, 94,107)  (  1, 97,104)
  0   132.1      0   173.0      0   225.4      0   280.6      0   302.1    
   (  1, 94,107)  (  1, 97,104)  (  1, 98,103)  (  1, 94,107)  (  1, 98,103)
  0   300.5      0   268.4      0   251.9      0   184.2      0   144.3    
   (  1,100,101)  (  1, 98,103)  (  1, 96,105)  (  1, 98,103)  (  1, 96,105)
  0   106.0      0   121.4      0   70.97      0   86.33      0   100.9    
   (  1, 94,107)  (  1, 56,106)  (  1, 97,104)  (  1,249,111)  (  2, 98,103)
  1  -130.2      0  -227.1      0  -101.6      0   97.47      0  -67.42    
   (  2, 98,103)  (  2, 97,104)  (  2, 98,103)  (  2, 55,106)  (  2, 57,106)
  0  -45.41      0  -20.92      0  -26.45      0   29.58      0  -25.82    
   (  2, 98,103)  (  2, 99,102)  (  2, 96,105)  (  2, 55,106)  (  1, 55,106)
  0   38.61      0   38.31      0   49.84      0   72.72      0   60.44    
   (  2, 55,106)  (  2, 96,105)  (  2, 95,106)  (  2, 94,107)  (  2, 98,103)
  0   94.44      0   84.90      0   107.6      0   90.74      0   83.83    
   (  2, 94,107)  (  2, 98,103)  (  2, 99,102)  (  2,100,101)  (  2,123,109)
  0   72.64      0   70.45      0   67.58      0   53.37      0   60.53    
   (  2,122,111)  (  2, 95,106)  (  2, 96,105)  (  2,100,101)  (  2, 99,102)
  0   63.57      0   115.7      0   95.79      0   160.5      0   210.9    
   (  2, 97,104)  (  2, 56,106)  (  1, 55,106)  (  2, 55,106)  (  1,249,111)
  1  -72.13      0  -99.11      0  -65.64      0   61.25      0  -35.05    
   (  2,123,108)  (  2, 97,104)  (  1, 57,106)  (  1, 55,106)  (  2, 97,104)
  0  -27.86      0  -25.25      0  -20.80      0  -18.70      0   40.12    
   (  2, 96,105)  (  2, 97,104)  (  2,123,108)  (  2, 95,106)  (  2, 55,106)
  0  -41.21      0   35.09      0   24.07      0   37.39      0   30.12    
   (  2, 55,106)  (  2, 56,106)  (  1, 93,108)  (  1, 94,107)  (  2,122,110)
  0   76.60      0   138.5      0   140.6      0   211.9      0   216.8    
   (  1, 94,107)  (  1, 95,106)  (  1, 96,105)  (  1,100,101)  (  1, 99,102)
  0   206.2      0   183.5      0   140.4      0   123.5      0   105.6    
   (  1, 98,103)  (  1, 99,102)  (  1, 98,103)  (  1, 95,106)  (  1, 98,103)
  0   187.5      0   111.6      0   189.9      0   260.3      0   259.1    
   (  1, 55,106)  (  1, 58,105)  (  1, 57,106)  (  2, 96,105)  (  2, 98,103)
  1  -47.65      0   45.67      0  -56.39      0   58.40      0   33.10    
   (  2, 95,106)  (  2, 55,106)  (  2, 56,106)  (  2, 55,106)  (  2, 98,103)
  0   25.30      0   29.14      0   31.21      0   50.98      0   29.75    
   (  2,123,109)  (  2,124,107)  (  2, 99,102)  (  2, 55,106)  (  2, 93,108)
  0   39.05      0   42.41      0   42.31      0   41.00      0   31.95    
   (  2,124,107)  (  2,100,101)  (  2, 93,108)  (  2, 94,107)  (  2,122,111)
  0   55.83      0   67.80      0   32.31      0   22.75      0   32.41    
   (  2, 99,102)  (  2,100,101)  (  2, 99,102)  (  2, 94,107)  (  2, 95,106)
  0   25.03      0   29.71      0   39.11      0   58.88      0   61.70    
   (  2, 96,105)  (  2, 95,106)  (  2, 96,105)  (  2, 97,104)  (  2, 96,105)
  0   67.06      0   45.00      0   75.53      0   91.07      0   88.00    
   (  1, 57,106)  (  2, 97,104)  (  1, 57,106)  (  2, 97,104)  (  2, 93,108)
  1  -29.90      0   29.92      0  -39.40      0   31.49      0   26.82    
   (  2, 98,103)  (  2, 98,103)  (  2, 57,106)  (  2, 55,106)  (  2, 98,103)
  0  -21.88      0   18.40      0  -19.04      0   26.52      0  -20.66    
   (  2, 98,103)  (  2,124,107)  (  2, 55,106)  (  2, 55,106)  (  2, 55,106)
  0   22.63      0   24.02      0   21.46      0   22.18      0   18.93    
   (  2,124,106)  (  2, 96,105)  (  2, 95,106)  (  2, 96,105)  (  2,122,111)
  0   94.82      0   103.5      0   96.21      0   76.80      0   88.11    
   (  2, 99,102)  (  2,100,101)  (  2, 99,102)  (  2,122,110)  (  2, 95,106)
  0   130.1      0   182.4      0   237.3      0   275.1      0   281.2    
   (  2, 94,107)  (  2, 95,106)  (  2, 94,107)  (  2, 65, 71)  (  2, 55,106)
  0   220.4      0   221.5      0   231.8      0   157.4      0   132.7    
   (  2, 58,105)  (  2, 57,106)  (  2, 99,102)  (  2, 98,103)  (  2, 57,106)
  1  -24.52      0   35.98      0  -44.50      0   24.67      0  -18.52    
   (  2, 57,106)  (  2, 55,106)  (  2, 57,106)  (  2, 55,106)  (  2, 97,104)
  0   17.27      0   21.77      0  -18.96      0   35.37      0  -17.95    
   (  1, 97,104)  (  1, 96,105)  (  2, 55,106)  (  1, 55,106)  (  2, 55,106)
  0   22.83      0  -19.15      0   19.87      0   23.63      0   18.48    
   (  1, 57,106)  (  2, 95,106)  (  1, 93,108)  (  1, 94,107)  (  1, 97,104)
  0   28.83      0  -29.63      0  -19.24      0   11.78      0   12.57    
   (  1,127,101)  (  2, 99,102)  (  2, 98,103)  (  1,127,101)  (  1,126,103)
  0   12.39      0   22.71      0   23.79      0   24.33      0   19.77    
   (  1,100,101)  (  2,250,105)  (  2, 99,102)  (  2,248,112)  (  1, 55,106)
  0   17.79      0   36.65      0   40.22      0   60.64      0   54.16    
   (  2, 57,106)  (  1, 57,106)  (  2, 96,105)  (  1, 57,106)  (  1, 99,102)
  1  -14.65      0  -14.98      0   21.55      0  -14.84      0  -11.01    
   (  1, 99,102)  (  2, 97,104)  (  1, 55,106)  (  1, 57,106)  (  2, 97,104)
  0   11.81      0   12.82      0  -18.77      0   18.22      0  -24.65    
   (  2,126,103)  (  1, 96,105)  (  2, 55,106)  (  2, 57,106)  (  2, 55,106)
  0   12.06      0   11.30      0   9.794      0   13.93      0   10.85    
   (  2,124,106)  (  1,100,101)  (  1, 99,102)  (  1, 94,107)  (  2,122,111)
  0   52.55      0   70.28      0   49.50      0   61.91      0   62.63    
   (  1, 98,103)  (  1,100,101)  (  1, 98,103)  (  1, 97,104)  (  1, 95,106)
  0   58.43      0   42.87      0   58.67      0   69.01      0   85.63    
   (  1, 97,104)  (  1, 95,106)  (  1, 97,104)  (  1, 96,105)  (  1, 59,104)
  0   112.6      0   104.7      0   85.63      0   61.27      0   55.82    
   (  1, 55,106)  (  2, 55,106)  (  2, 98,103)  (  1, 96,105)  (  1,126,103)
  1   11.46      0   19.08      0  -22.60      0   15.51      0   16.13    
   (  2, 97,104)  (  2, 55,106)  (  2, 57,106)  (  2, 97,104)  (  2, 96,105)
  0   21.83      0   17.94      0  -13.41      0  -19.50      0   15.69    
   (  2,125,105)  (  2,124,107)  (  2, 55,106)  (  1, 55,106)  (  2, 94,107)
  0   14.98      0   18.66      0   11.28      0   10.45      0   15.57    
   (  2, 97,104)  (  2, 98,103)  (  2, 93,108)  (  2, 93,108)  (  2, 99,102)
  0   30.80      0   42.48      0   33.21      0   20.36      0   14.80    
   (  2, 95,106)  (  2, 94,107)  (  2, 95,106)  (  2, 94,107)  (  2,123,108)
  0   13.84      0   19.31      0   23.38      0   17.64      0   14.87    
   (  2, 96,105)  (  2,124,107)  (  2,123,108)  (  2,122,111)  (  2,124,106)
  0   23.05      0   23.78      0   46.18      0   57.77      0   59.32    
   (  1, 55,106)  (  2,123,109)  (  2, 98,103)  (  1, 98,103)  (  2, 98,103)
  1  -10.74      0   11.11      0  -21.10      0   13.94      0   10.19    
   (  2, 98,103)  (  2, 55,106)  (  2, 57,106)  (  2, 55,106)  (  2, 98,103)
  0  -6.888      0   6.505      0  -9.674      0  -10.87      0  -8.339    
   (  2, 98,103)  (  1, 97,104)  (  2, 55,106)  (  1, 55,106)  (  2, 55,106)
  0   9.128      0   8.871      0   8.223      0   10.99      0   12.50    
   (  2,124,106)  (  2,122,111)  (  2,123,108)  (  2,124,106)  (  2,122,110)
  0   25.67      0   24.07      0   21.29      0   47.52      0   46.14    
   (  2,123,109)  (  2,124,107)  (  2,122,110)  (  2,123,109)  (  2, 95,106)
  0   64.64      0   96.07      0   137.6      0   152.6      0   165.7    
   (  2, 94,107)  (  2,123,108)  (  2, 94,107)  (  2, 55,106)  (  2, 96,105)
  0   198.2      0   146.9      0   102.3      0   69.36      0   48.99    
   (  2, 55,106)  (  2, 97,104)  (  2, 96,105)  (  2, 97,104)  (  1,126,103)
  1  -10.80      0  -12.98      0  -7.680      0  -14.24      0  -11.49    
   (  1, 57,106)  (  2, 57,106)  (  2, 97,104)  (  2, 98,103)  (  2, 97,104)
  0  -13.54      0  -16.98      0   10.61      0  -14.36      0  -10.53    
   (  2, 98,103)  (  2, 55,106)  (  2, 55,106)  (  2, 55,106)  (  2, 97,104)
  0  -9.298      0   8.394      0  -9.889      0   10.69      0   9.308    
   (  2, 96,105)  (  1, 97,104)  (  2, 96,105)  (  1, 94,107)  (  1, 93,108)
  0   13.64      0   11.40      0   7.238      0   4.572      0   5.226    
   (  2,229, 35)  (  1,126,103)  (  1, 95,106)  (  1, 96,105)  (  1,126,103)
  0   6.616      0   8.149      0   6.664      0   9.321      0   6.699    
   (  1,127,102)  (  1,124,106)  (  2, 96,105)  (  2, 55,106)  (  2, 58,105)
  0   15.62      0   9.915      0   15.19      0   17.32      0   16.69    
   (  2, 57,106)  (  1, 97,104)  (  1, 57,106)  (  2, 95,106)  (  1, 57,106)
  1   10.37      0  -9.089      0  -4.319      0  -8.750      0   8.086    
   (  2, 55,106)  (  2, 57,106)  (  2,100,101)  (  2, 98,103)  (  2, 98,103)
  0  -5.826      0  -9.983      0   5.442      0  -5.005      0  -6.598    
   (  2, 98,103)  (  2, 55,106)  (  1, 55,106)  (  2, 55,106)  (  2, 97,104)
  0   4.567      0   3.958      0   4.143      0   6.778      0   5.223    
   (  2, 97,104)  (  2,122,111)  (  1, 93,108)  (  1, 94,107)  (  1, 93,108)
  0   20.13      0   33.42      0   22.84      0   21.55      0   14.93    
   (  2,232, 29)  (  1, 94,107)  (  1, 97,104)  (  1,127,102)  (  1, 95,106)
  0   24.99      0   43.14      0   45.10      0   50.06      0   57.11    
   (  1, 96,105)  (  1, 99,102)  (  2, 55,106)  (  1, 58,105)  (  1, 57,106)
  0   25.28      0   35.69      0   26.59      0   28.52      0   26.68    
   (  1, 98,103)  (  1, 97,104)  (  2, 96,105)  (  1, 55,106)  (  2, 55,106)
  1   4.891      0  -6.955      0   13.68      0  -9.959      0   7.986    
   (  2, 96,105)  (  2, 57,106)  (  2, 55,106)  (  2, 57,106)  (  2,122,110)
  0   9.098      0   8.594      0   10.06      0   7.637      0   5.963    
   (  2,124,107)  (  2, 95,106)  (  2,122,110)  (  2, 96,105)  (  1, 57,106)
  0  -6.960      0   6.929      0   7.080      0   7.750      0   8.270    
   (  1, 55,106)  (  2,122,111)  (  2, 95,106)  (  2, 99,102)  (  2, 95,106)
  0   14.29      0   13.09      0   8.795      0   8.631      0   7.017    
   (  2, 54, 70)  (  2, 54, 70)  (  2, 55,106)  (  2, 49, 81)  (  2, 49, 80)
  0   4.666      0   5.053      0   7.966      0   9.726      0   11.00    
   (  2, 51, 99)  (  2, 89,100)  (  2, 98,103)  (  2, 55,106)  (  2, 58,105)
  0   20.21      0   9.248      0   10.57      0   12.59      0   21.59    
   (  2, 57,106)  (  2, 97,104)  (  1,126,103)  (  2, 97,104)  (  2, 96,105)
  1   6.992      0  -5.581      0   5.019      0  -10.08      0   6.074    
   (  2, 97,104)  (  2, 97,104)  (  2,124,107)  (  2, 57,106)  (  2, 55,106)
  0   6.265      0   4.601      0   4.383      0   4.130      0  -3.825    
   (  2,124,107)  (  2,125,105)  (  1,100,101)  (  2,124,106)  (  1, 55,106)
  0   4.233      0   3.792      0   3.814      0   3.414      0   5.060    
   (  1, 57,106)  (  2,128, 99)  (  1, 98,103)  (  1, 99,102)  (  1, 98,103)
  0   10.74      0   18.56      0   20.25      0   25.04      0   26.28    
   (  2,122,110)  (  2,123,109)  (  2,124,107)  (  2,122,110)  (  2,123,108)
  0   24.08      0   42.10      0   42.10      0   72.77      0   84.58    
   (  2, 96,105)  (  2,122,111)  (  2,123,109)  (  2, 50, 89)  (  2, 57,106)
  0   48.84      0   48.14      0   24.17      0   17.08      0   11.32    
   (  2, 58,105)  (  2, 55,106)  (  2, 59, 99)  (  2, 55,106)  (  2, 98,103)
  1  -5.787      0  -4.188      0   6.514      0  -5.455      0  -8.221    
   (  2, 98,103)  (  2, 97,104)  (  1, 55,106)  (  2, 98,103)  (  2, 97,104)
  0  -7.292      0  -7.701      0  -5.560      0  -5.370      0  -8.336    
   (  2, 52, 81)  (  2, 50, 89)  (  2, 57,106)  (  2, 97,104)  (  2, 55,106)
  0   5.693      0  -5.949      0  -3.887      0  -3.557      0   3.023    
   (  2, 57,106)  (  2, 55,106)  (  2, 96,105)  (  2, 95,106)  (  1, 98,103)
  0   5.914      0   6.256      0   6.182      0   3.629      0   3.199    
   (  2,250,101)  (  2,249,109)  (  2,243,108)  (  2,236,112)  (  1, 97,104)
  0   2.262      0   3.871      0   4.441      0   4.469      0   5.247    
   (  1, 95,106)  (  1, 94,107)  (  1, 93,108)  (  1, 94,107)  (  1, 96,105)
  0   8.495      0   5.930      0   11.39      0   17.11      0   20.13    
   (  1, 55,106)  (  2, 97,103)  (  2, 96,105)  (  2, 94,107)  (  1, 94,107)
  1  -3.960      0  -3.773      0   3.448      0  -3.704      0  -3.653    
   (  2, 98,103)  (  2, 97,104)  (  1, 55,106)  (  1, 57,106)  (  2, 97,104)
  0  -3.156      0  -2.702      0   2.801      0  -5.144      0   3.287    
   (  2, 98,103)  (  2, 97,104)  (  2,122,110)  (  2, 55,106)  (  2, 55,106)
  0  -3.648      0   2.905      0   3.717      0   2.704      0   3.055    
   (  2, 55,106)  (  1, 95,106)  (  1, 97,104)  (  1, 95,106)  (  1, 93,108)
  0   4.527      0   4.419      0   6.078      0   6.513      0   9.153    
   (  1, 98,103)  (  1, 97,104)  (  1, 98,103)  (  1, 95,106)  (  1, 98,103)
  0   10.24      0   11.58      0   8.529      0   12.21      0   9.891    
   (  1, 97,104)  (  1, 96,105)  (  1, 97,104)  (  2,236,112)  (  2,249,111)
  0   7.967      0  -6.026      0   9.288      0   8.251      0   10.55    
   (  2, 57,106)  (  2, 55,106)  (  2, 55,106)  (  1, 99,102)  (  1, 95,106)
  1  -2.860      0  -2.327      0   3.091      0  -2.942      0   2.822    
   (  1,100,101)  (  2, 97,104)  (  1, 55,106)  (  1, 57,106)  (  2,122,110)
  0   3.026      0   2.927      0   3.533      0   4.654      0  -4.344    
   (  2, 97,104)  (  2,126,103)  (  2,122,110)  (  2, 55,106)  (  2, 55,106)
  0   3.825      0   3.415      0   2.733      0   2.031      0   2.888    
   (  2, 57,106)  (  2,122,111)  (  2, 97,104)  (  2,126,103)  (  2,122,111)
  0   5.330      0   8.632      0   10.20      0   8.703      0   6.933    
   (  2, 93,108)  (  2, 59, 79)  (  2, 61, 87)  (  2, 53, 81)  (  2, 53, 90)
  0   2.938      0   2.942      0   6.077      0   8.405      0   8.653    
   (  1, 95,106)  (  2,123,108)  (  2,125,105)  (  2, 47, 85)  (  1, 55,106)
  0   9.802      0   13.31      0   8.018      0   9.083      0   10.79    
   (  2, 58,105)  (  1, 57,106)  (  1, 97,104)  (  1, 98,103)  (  1, 97,104)
  1  -1.743      0  -2.039      0   2.410      0  -2.911      0  -3.092    
   (  1, 94,107)  (  2, 97,104)  (  1, 55,106)  (  1, 57,106)  (  2, 57,106)
  0   1.883      0   2.276      0  -2.397      0   2.240      0  -3.012    
   (  1,124,107)  (  1, 97,104)  (  2, 55,106)  (  2, 57,106)  (  2, 55,106)
  0   1.238      0   1.727      0   1.658      0   1.915      0   1.923    
   (  1, 94,107)  (  2,128, 99)  (  1, 96,105)  (  1, 95,106)  (  1, 93,108)
  0   3.944      0   5.613      0   7.627      0   5.512      0   6.178    
   (  1, 56, 70)  (  2,123,109)  (  1, 97,104)  (  1, 54, 72)  (  2,123,108)
  0   9.742      0   11.20      0   11.07      0   11.45      0   18.65    
   (  1, 94,107)  (  1, 96,105)  (  1, 98,103)  (  1, 96,105)  (  1, 98,103)
  0   10.46      0   9.699      0   5.625      0   11.13      0   12.51    
   (  1, 99,102)  (  1, 55,106)  (  1, 98,103)  (  1, 99,102)  (  2,124,107)
  1  -2.449      0  -1.489      0   2.440      0  -2.843      0   3.571    
   (  2, 94,107)  (  1, 99,102)  (  1, 55,106)  (  1, 57,106)  (  2,122,110)
  0   3.595      0   2.593      0   4.068      0   3.229      0   2.288    
   (  2,124,107)  (  2,123,109)  (  2,122,110)  (  2,124,106)  (  2,125,104)
  0   2.553      0  -2.358      0   3.700      0   1.860      0   2.452    
   (  2, 57,106)  (  2, 55,106)  (  2, 57,106)  (  2, 98,103)  (  2, 97,104)
  0   4.061      0   3.880      0   4.900      0   5.334      0   3.699    
   (  2, 69,102)  (  2, 66,105)  (  2, 66,105)  (  2, 55,103)  (  2, 56, 75)
  0   2.199      0   2.259      0   1.806      0   2.079      0   2.775    
   (  2, 98,103)  (  2, 50, 77)  (  2,126,103)  (  2, 97,104)  (  2, 96,105)
  0   5.085      0   7.724      0   6.461      0   8.892      0   7.546    
   (  2, 97,104)  (  1, 55,106)  (  2, 59, 62)  (  1, 57,106)  (  1, 94,107)
  1  -2.194      0  -1.471      0   3.229      0  -1.697      0   1.894    
   (  2, 94,107)  (  1, 57,106)  (  1, 55,106)  (  1, 57,106)  (  2, 98,103)
  0   1.523      0   1.366      0   1.802      0   1.222      0   1.361    
   (  2, 97,104)  (  2, 96,105)  (  2, 97,104)  (  2,124,106)  (  2,125,104)
  0   1.703      0  -2.405      0   2.330      0  -1.708      0   1.407    
   (  2,122,111)  (  2, 55,106)  (  2, 57,106)  (  2, 55,106)  (  2,122,110)
  0   3.231      0   3.044      0   2.975      0   3.722      0   7.326    
   (  2,124,107)  (  2,125,105)  (  2,124,107)  (  1, 95,106)  (  1, 96,105)
  0   14.78      0   18.98      0   14.33      0   15.14      0   25.60    
   (  2, 54,102)  (  2,100,101)  (  1, 97,104)  (  1, 94,107)  (  2, 93,108)
  0   19.83      0   12.23      0   17.20      0   18.35      0   12.92    
   (  1, 98,103)  (  1, 97,104)  (  1, 57,106)  (  2, 75, 51)  (  2,125,105)
  1   2.024      0   1.577      0  -1.984      0   1.629      0   1.151    
   (  1,126,103)  (  1, 55,106)  (  1, 57,106)  (  1, 55,106)  (  1, 97,104)
  0  -1.024      0   1.049      0   1.083      0 -0.7559      0  -2.341    
   (  1,126,103)  (  1, 97,104)  (  1, 94,107)  (  2, 94,107)  (  2, 55,106)
  0   1.485      0  -1.377      0  0.7694      0   1.094      0   1.131    
   (  2, 57,106)  (  2, 55,106)  (  1, 96,105)  (  1, 95,106)  (  1, 96,105)
  0  -1.499      0  -1.673      0   2.241      0  -1.596      0   1.367    
   (  2, 96,105)  (  2, 97,104)  (  1, 97,104)  (  2, 97,104)  (  1, 97,104)
  0   1.075      0   1.168      0  0.9915      0   1.201      0  0.7952    
   (  1, 99,102)  (  1,100,101)  (  1, 93,108)  (  1,100,101)  (  1, 98,103)
  0   2.626      0   2.010      0   2.889      0   2.706      0   4.151    
   (  1, 55,106)  (  2,250,108)  (  1, 57,106)  (  2, 94,107)  (  2, 95,106)
  1  -1.422      0  0.9239      0  -1.325      0  0.9518      0  0.7840    
   (  2, 98,103)  (  2, 98,103)  (  1, 57,106)  (  1, 55,106)  (  2,122,110)
  0 -0.8187      0  0.5213      0 -0.7934      0   1.153      0  -1.149    
   (  2, 98,103)  (  2,125,105)  (  2, 55,106)  (  2, 55,106)  (  2, 55,106)
  0  0.6736      0  0.7909      0  0.5660      0  0.7624      0  0.9065    
   (  1, 94,107)  (  2,122,111)  (  1, 96,105)  (  1, 94,107)  (  2,122,111)
  0   1.931      0   2.809      0   4.753      0   4.899      0   3.692    
   (  1, 97,104)  (  1, 95,106)  (  1, 97,104)  (  1, 95,106)  (  2,124,107)
  0   5.466      0   5.626      0   11.76      0   12.95      0   9.656    
   (  1, 98,103)  (  2,126,103)  (  2,124,106)  (  1,126,103)  (  1, 57,106)
  0   5.960      0   11.01      0   13.11      0   7.727      0   7.089    
   (  1,127,101)  (  1, 55,106)  (  1,100,101)  (  2, 97,104)  (  1,100,101)
  1  0.9170      0   1.121      0   1.752      0  -1.434      0   1.018    
   (  2, 99,102)  (  2, 98,103)  (  2, 55,106)  (  2, 57,106)  (  2, 98,103)
  0  0.6911      0  0.6721      0  0.5083      0 -0.3573      0  0.5431    
   (  2, 97,104)  (  2, 98,103)  (  2, 97,104)  (  1, 55,106)  (  1, 55,106)
  0  0.3921      0  0.4634      0  0.4093      0  0.4526      0  0.4689    
   (  2, 97,104)  (  2, 96,105)  (  2, 97,104)  (  2, 96,105)  (  2, 97,104)
  0  0.8230      0   1.153      0   1.342      0   1.325      0   2.469    
   (  2, 96,105)  (  2, 63, 59)  (  2, 96,105)  (  2, 98,103)  (  2, 96,105)
  0   2.391      0   2.689      0   4.033      0   3.291      0   2.004    
   (  2, 49, 86)  (  2, 94,107)  (  2, 95,106)  (  2, 94,107)  (  2, 57,106)
  0   1.486      0   2.377      0   1.323      0   1.591      0   1.869    
   (  2, 58,105)  (  2, 57,106)  (  1,126,103)  (  2,123,108)  (  1, 96,105)
  1  0.5599      0 -0.5050      0  0.8971      0 -0.5715      0  0.4344    
   (  1, 95,106)  (  1, 57,106)  (  1, 55,106)  (  1, 57,106)  (  1, 96,105)
  0 -0.2754      0  0.3874      0  0.4906      0  0.6591      0 -0.8732    
   (  2,123,109)  (  1, 96,105)  (  1, 94,107)  (  2, 55,106)  (  2, 55,106)
  0  0.3888      0  0.4022      0  0.5573      0  0.3836      0  0.4863    
   (  2, 57,106)  (  1, 95,106)  (  1, 97,104)  (  1, 94,107)  (  1, 97,104)
  0   1.210      0   1.708      0   1.332      0  0.6074      0  0.3832    
   (  1, 98,103)  (  1, 99,102)  (  1, 98,103)  (  1, 99,102)  (  1, 96,105)
  0  0.4217      0  0.5056      0  0.5374      0   1.090      0   1.297    
   (  1, 99,102)  (  2,100,101)  (  1, 97,104)  (  2, 97,104)  (  1, 57,106)
  0  0.9208      0   1.278      0   1.665      0   6.718      0   8.987    
   (  2, 94,107)  (  1, 55,106)  (  2, 96,105)  (  2, 97,104)  (  2,100,101)
  1  0.9683      0 -0.5932      0 -0.5861      0 -0.5259      0 -0.3590    
   (  1,126,103)  (  2, 97,104)  (  2, 57,106)  (  1, 57,106)  (  2, 97,104)
  0 -0.3731      0 -0.2805      0 -0.2775      0  0.5040      0 -0.3035    
   (  2, 98,103)  (  2, 97,104)  (  2, 57,106)  (  2, 55,106)  (  2, 57,106)
  0  0.1992      0  0.2771      0  0.2191      0  0.3057      0  0.3994    
   (  2, 55,106)  (  2, 98,103)  (  2, 97,104)  (  1, 95,106)  (  2, 97,104)
  0  0.7110      0  0.7535      0   1.019      0   2.024      0   1.738    
   (  1, 95,106)  (  2, 94,107)  (  2, 96,105)  (  1, 99,102)  (  1, 98,103)
  0   2.706      0   4.787      0   6.021      0   8.034      0   4.599    
   (  1, 99,102)  (  1, 94,107)  (  1, 96,105)  (  1, 94,107)  (  1,125,105)
  0   3.829      0   4.346      0   3.302      0   1.574      0  0.8288    
   (  1, 55,106)  (  1,124,106)  (  2,127,101)  (  2, 95,106)  (  2, 94,107)
  1 -0.4748      0  0.3895      0  0.2638      0 -0.4015      0  0.2351    
   (  2, 96,105)  (  2, 96,105)  (  1, 55,106)  (  1, 55,106)  (  1, 55,106)
  0  0.2944      0  0.1904      0  0.2891      0  0.2986      0  0.3490    
   (  2,124,107)  (  2, 50, 84)  (  2, 97,104)  (  2,124,107)  (  2, 55,106)
  0  0.3844      0  0.6972      0  0.3134      0  0.3853      0  0.3400    
   (  2, 98,103)  (  2, 57,106)  (  2, 58,105)  (  2, 57,106)  (  2, 99,102)
  0  0.5701      0  0.3891      0  0.4026      0  0.3209      0  0.2313    
   (  2, 98,103)  (  2, 96,105)  (  2, 97,104)  (  2, 99,102)  (  2, 97,104)
  0  0.2113      0  0.2829      0  0.2629      0  0.1650      0  0.2073    
   (  2, 98,103)  (  2, 97,104)  (  2, 98,103)  (  1,124,106)  (  2, 98,103)
  0  0.3089      0  0.3339      0  0.5394      0  0.5601      0  0.5959    
   (  1, 55,106)  (  2,127,101)  (  2, 98,103)  (  2, 99,102)  (  2,127,101)
  1 -0.2881      0  0.2946      0  0.1526      0 -0.2429      0  0.2445    
   (  2, 96,105)  (  2, 96,105)  (  1, 55,106)  (  1, 57,106)  (  1, 55,106)
  0  0.1670      0  0.1297      0  0.1918      0  0.1306      0  0.2935    
   (  2, 97,104)  (  2, 96,105)  (  2, 97,104)  (  2, 95,106)  (  2, 57,106)
  0 -0.2840      0  0.3003      0  0.1541      0  0.1499      0  0.2308    
   (  2, 55,106)  (  2, 57,106)  (  2, 94,107)  (  2, 95,106)  (  2,122,111)
  0  0.6233      0  0.7705      0   1.203      0   1.110      0  0.9185    
   (  2, 63, 59)  (  2, 99,102)  (  2, 97,104)  (  2,127,102)  (  2, 97,104)
  0  0.6104      0  0.8124      0   1.013      0   1.243      0  0.9863    
   (  2, 98,103)  (  2, 99,102)  (  2, 98,103)  (  2, 99,102)  (  2, 98,103)
  0  0.9861      0   1.419      0   1.220      0  0.9381      0  0.8340    
   (  2, 99,102)  (  2, 55,106)  (  2, 62,105)  (  2, 99,102)  (  2, 98,103)
  1 -0.1732      0 -0.1689      0  0.2891      0 -0.2264      0 -0.2048    
   (  1, 94,107)  (  2, 97,104)  (  1, 55,106)  (  1, 57,106)  (  2, 97,104)
  0 -0.2215      0 -0.2340      0  0.1928      0 -0.2859      0 -0.2414    
   (  2, 98,103)  (  2, 97,104)  (  1, 94,107)  (  2, 97,104)  (  2, 55,106)
  0  0.1887      0 -0.3808      0  0.2051      0  0.1770      0  0.1805    
   (  1, 99,102)  (  2, 55,106)  (  2, 57,106)  (  1, 94,107)  (  1, 97,104)
  0  0.3215      0  0.2542      0  0.1931      0  0.2142      0  0.2605    
   (  1, 94,107)  (  1, 95,106)  (  1, 96,105)  (  1, 95,106)  (  1, 96,105)
  0  0.2612      0  0.2742      0  0.2359      0  0.1780      0  0.2638    
   (  2,244,110)  (  1,126,103)  (  2,250,102)  (  2,249, 96)  (  1,126,103)
  0  0.2266      0  0.1954      0  0.4404      0  0.3709      0  0.4031    
   (  1, 98,103)  (  1, 96,105)  (  1, 57,106)  (  1, 98,103)  (  1,100,101)
  1 -0.1553      0 -0.1195      0 -0.1452      0  0.1978      0  0.9041E-01
   (  1,100,101)  (  1, 98,103)  (  1, 57,106)  (  1, 55,106)  (  2,122,110)
  0 -0.8811E-01  0  0.9012E-01  0  0.1211      0  0.1002      0  0.1994    
   (  1,126,103)  (  1, 97,104)  (  2, 97,104)  (  1, 99,102)  (  2, 57,106)
  0 -0.2513      0  0.1392      0  0.1133      0  0.1276      0  0.1247    
   (  2, 55,106)  (  2, 57,106)  (  1, 96,105)  (  1, 95,106)  (  2,122,111)
  0  0.4300      0  0.8255      0  0.9201      0   1.360      0   1.756    
   (  1, 95,106)  (  1, 94,107)  (  1, 97,104)  (  1, 96,105)  (  1, 97,104)
  0   2.664      0   2.781      0  0.9517      0   1.756      0   1.983    
   (  1, 96,105)  (  1, 94,107)  (  2,125,104)  (  1,126,103)  (  2,127,101)
  0   1.144      0   1.486      0  0.7440      0  0.5006      0  0.3413    
   (  2,125,104)  (  1, 55,106)  (  2, 98,103)  (  2, 97,104)  (  2,125,105)
  1 -0.9099E-01  0  0.9659E-01  0  0.1132      0 -0.1585      0  0.1523    
   (  1,100,101)  (  2, 96,105)  (  2, 55,106)  (  2, 57,106)  (  2, 55,106)
  0  0.8683E-01  0  0.7330E-01  0  0.9229E-01  0  0.5673E-01  0  0.1012    
   (  2, 97,104)  (  2, 96,105)  (  2, 97,104)  (  2, 96,105)  (  1, 57,106)
  0  0.6554E-01  0  0.9400E-01  0  0.6658E-01  0  0.7150E-01  0  0.1080    
   (  2, 97,104)  (  2, 98,103)  (  2, 97,104)  (  2,123,108)  (  2,122,110)
  0  0.2199      0  0.1897      0  0.1602      0  0.1284      0  0.2212    
   (  2,125,105)  (  2,123,109)  (  2, 98,103)  (  2, 99,102)  (  2,123,109)
  0  0.2347      0  0.2550      0  0.2102      0  0.1597      0  0.1666    
   (  2, 67,104)  (  2, 66,105)  (  2, 66,105)  (  2, 67,104)  (  1,126,103)
  0  0.1662      0  0.3192      0  0.2599      0  0.4816      0  0.2253    
   (  2, 60,105)  (  2, 57,106)  (  2, 58,105)  (  2, 57,106)  (  2, 58,105)
  1  0.7524E-01  0 -0.1417      0  0.1350      0 -0.1004      0  0.5915E-01
   (  2, 55,106)  (  2, 57,106)  (  2, 55,106)  (  2, 57,106)  (  1, 97,104)
  0 -0.5341E-01  0  0.5451E-01  0  0.6441E-01  0  0.1356      0  0.6189E-01
   (  1,126,103)  (  1, 97,104)  (  1, 94,107)  (  1, 55,106)  (  1, 58,105)
  0  0.6132E-01  0  0.6764E-01  0  0.4680E-01  0  0.5801E-01  0  0.6489E-01
   (  1, 94,107)  (  1, 95,106)  (  1, 96,105)  (  1, 99,102)  (  1, 93,108)
  0  0.2305      0  0.1907      0  0.2106      0  0.2658      0  0.2314    
   (  1, 94,107)  (  1,125,104)  (  1, 97,104)  (  1, 95,106)  (  1,125,105)
  0  0.2900      0  0.2453      0  0.1977      0  0.2721      0  0.2847    
   (  1,126,103)  (  1,100,101)  (  1, 99,102)  (  1,100,101)  (  1, 96,105)
  0  0.4137      0  0.4588      0  0.4101      0  0.2312      0  0.2406    
   (  2, 56,106)  (  1, 57,106)  (  2, 57,106)  (  1, 98,103)  (  1, 96,105)
  1  0.6982E-01  0 -0.1003      0  0.8740E-01  0 -0.7203E-01  0  0.7388E-01
   (  2, 55,106)  (  2, 57,106)  (  2, 55,106)  (  2, 57,106)  (  2,122,110)
  0  0.7121E-01  0 -0.5402E-01  0  0.8745E-01  0  0.7981E-01  0  0.8309E-01
   (  2,123,108)  (  2, 57,106)  (  2, 55,106)  (  1, 57,106)  (  2,123,108)
  0  0.7709E-01  0  0.8798E-01  0  0.7003E-01  0  0.5890E-01  0  0.7559E-01
   (  2, 97,104)  (  2, 98,103)  (  2, 97,104)  (  2, 93,108)  (  2, 97,104)
  0  0.1454      0  0.1592      0  0.1124      0  0.7640E-01  0  0.1279    
   (  2, 55,105)  (  2, 93,107)  (  2, 98,103)  (  2, 55, 82)  (  2, 54, 71)
  0  0.1797      0  0.1365      0  0.1228      0  0.7183E-01  0  0.8776E-01
   (  2, 47, 85)  (  2, 59, 68)  (  2, 57,106)  (  2, 97,104)  (  2, 57,106)
  0  0.6833E-01  0  0.1111      0  0.1547      0  0.4030      0  0.4302    
   (  2, 98,103)  (  2, 97,104)  (  1, 94,107)  (  1,126,103)  (  2, 55,106)
  1 -0.1105      0  0.6810E-01  0 -0.6564E-01  0 -0.4005E-01  0  0.3848E-01
   (  2, 55,106)  (  2, 55,106)  (  1,126,103)  (  2, 96,105)  (  2, 96,105)
  0 -0.4793E-01  0  0.4918E-01  0 -0.5992E-01  0  0.5769E-01  0  0.5336E-01
   (  2, 57,106)  (  2, 55,106)  (  2, 57,106)  (  2,122,110)  (  2,123,108)
  0  0.5244E-01  0  0.5041E-01  0 -0.3606E-01  0  0.4123E-01  0  0.4523E-01
   (  1,100,101)  (  2, 98,103)  (  2, 98,103)  (  2, 98,103)  (  1, 96,105)
  0  0.9295E-01  0  0.9415E-01  0  0.1819      0  0.3508      0  0.7094    
   (  1,100,101)  (  1, 99,102)  (  1, 97,104)  (  1, 94,107)  (  1, 97,104)
  0  0.8886      0   1.113      0  0.8252      0  0.8504      0  0.5169    
   (  1,124,107)  (  1, 97,104)  (  1, 55,106)  (  2, 55,106)  (  1, 94,107)
  0  0.4326      0  0.5138      0  0.4488      0  0.2526      0  0.1118    
   (  2, 98,103)  (  2, 97,104)  (  2, 98,103)  (  2, 57,106)  (  2, 97,104)
  1  0.7080E-01  0 -0.4324E-01  0 -0.3650E-01  0  0.3305E-01  0  0.2615E-01
   (  1, 55,106)  (  1, 55,106)  (  1, 98,103)  (  1, 98,103)  (  2,122,110)
  0 -0.2326E-01  0  0.3847E-01  0 -0.4847E-01  0  0.3951E-01  0  0.3159E-01
   (  2, 57,106)  (  2, 55,106)  (  2, 55,106)  (  2,122,110)  (  2,123,109)
  0  0.1752E-01  0  0.2389E-01  0  0.1738E-01  0  0.1853E-01  0  0.3139E-01
   (  2, 96,105)  (  2,122,111)  (  2,123,108)  (  1, 95,106)  (  2, 99,102)
  0  0.9523E-01  0  0.6190E-01  0  0.5929E-01  0  0.6408E-01  0  0.7495E-01
   (  2, 78, 45)  (  2, 56, 75)  (  2, 52, 87)  (  2, 95,106)  (  2, 96,105)
  0  0.1102      0  0.1333      0  0.1254      0  0.1451      0  0.1073    
   (  2, 97,104)  (  2, 96,105)  (  2, 97,104)  (  2, 55,106)  (  2, 58,105)
  0  0.1801      0  0.1683      0  0.1782      0  0.9340E-01  0  0.8781E-01
   (  2, 55,106)  (  2, 96,105)  (  2, 97,104)  (  2, 96,105)  (  1, 94,107)
  1  0.5467E-01  0 -0.2530E-01  0 -0.3951E-01  0  0.2603E-01  0 -0.3111E-01
   (  1, 55,106)  (  1, 57,106)  (  2, 98,103)  (  2, 98,103)  (  2, 98,103)
  0 -0.2907E-01  0 -0.2502E-01  0 -0.6719E-01  0  0.2736E-01  0 -0.3126E-01
   (  2, 97,104)  (  2, 58,105)  (  2, 55,106)  (  2, 55,106)  (  2, 57,106)
  0 -0.2289E-01  0 -0.2160E-01  0 -0.1793E-01  0  0.2274E-01  0  0.2196E-01
   (  2, 97,104)  (  2, 96,105)  (  2, 97,104)  (  1, 94,107)  (  1,127,101)
  0  0.8141E-01  0  0.4498E-01  0  0.2646E-01  0  0.3001E-01  0  0.4565E-01
   (  2,239, 30)  (  1, 94,107)  (  1, 95,106)  (  1, 94,107)  (  1, 97,104)
  0  0.4220E-01  0  0.3033E-01  0  0.3910E-01  0  0.4397E-01  0  0.6514E-01
   (  1, 96,105)  (  1, 97,104)  (  1,127,102)  (  1,124,106)  (  2, 57,106)
  0  0.6372E-01  0  0.7278E-01  0  0.5075E-01  0  0.6393E-01  0  0.8477E-01
   (  1, 57,106)  (  1,126,103)  (  1, 95,106)  (  2, 96,105)  (  2, 57,106)
  1 -0.3329E-01  0  0.3728E-01  0 -0.2531E-01  0  0.2459E-01  0  0.2298E-01
   (  2, 55,106)  (  2, 55,106)  (  2, 57,106)  (  2, 98,103)  (  2, 97,104)
  0  0.1877E-01  0  0.1846E-01  0 -0.2673E-01  0  0.2110E-01  0  0.1835E-01
   (  2, 98,103)  (  1, 55,106)  (  2, 57,106)  (  2, 98,103)  (  2,126,103)
  0  0.1452E-01  0  0.2070E-01  0  0.1488E-01  0  0.1683E-01  0  0.1982E-01
   (  2, 96,105)  (  2, 97,104)  (  2, 96,105)  (  1, 94,107)  (  1,124,106)
  0  0.5474E-01  0  0.6298E-01  0  0.1014      0  0.1004      0  0.1019    
   (  2, 81, 45)  (  2, 96,105)  (  2, 98,103)  (  2, 53, 82)  (  2,123,109)
  0  0.1777      0  0.2150      0  0.2572      0  0.2744      0  0.1377    
   (  2,100,101)  (  2, 94,107)  (  2, 95,106)  (  2, 96,105)  (  1, 55,106)
  0  0.1461      0  0.2506      0  0.2040      0  0.1055      0  0.5766E-01
   (  2, 95,106)  (  2, 96,105)  (  2, 98,103)  (  2, 96,105)  (  2, 94,107)
  1  0.2544E-01  0 -0.1862E-01  0  0.3262E-01  0 -0.2782E-01  0 -0.3013E-01
   (  1,126,103)  (  1, 57,106)  (  1, 55,106)  (  2, 66,105)  (  2, 96,105)
  0 -0.3431E-01  0 -0.2643E-01  0 -0.5364E-01  0  0.2840E-01  0 -0.3519E-01
   (  2, 97,104)  (  2, 59,105)  (  2, 55,106)  (  2, 57,106)  (  2, 55,106)
  0 -0.2479E-01  0 -0.2355E-01  0 -0.1315E-01  0  0.1566E-01  0  0.1597E-01
   (  2, 95,106)  (  2, 94,107)  (  2,122,110)  (  1, 94,107)  (  1, 99,102)
  0  0.3550E-01  0  0.2097E-01  0  0.1386E-01  0  0.1052E-01  0  0.1833E-01
   (  2,236, 28)  (  2,236, 28)  (  2,234, 32)  (  1, 94,107)  (  1, 98,103)
  0  0.2381E-01  0  0.2238E-01  0  0.2441E-01  0  0.1948E-01  0  0.2546E-01
   (  1, 97,104)  (  1, 98,103)  (  1, 97,104)  (  1, 94,107)  (  1, 55,106)
  0  0.1366E-01  0  0.2017E-01  0  0.4554E-01  0  0.5474E-01  0  0.6406E-01
   (  2,250,108)  (  1,127,101)  (  1, 95,106)  (  1, 96,105)  (  2, 56,106)
  1 -0.2114E-01  0  0.2134E-01  0 -0.1963E-01  0  0.1150E-01  0  0.1160E-01
   (  2, 57,106)  (  2, 55,106)  (  2, 57,106)  (  1, 96,105)  (  2,122,110)
  0 -0.1429E-01  0  0.1602E-01  0 -0.2407E-01  0  0.1832E-01  0 -0.1385E-01
   (  2, 55,106)  (  1, 55,106)  (  2, 55,106)  (  1, 55,106)  (  2, 98,103)
  0 -0.1078E-01  0  0.9750E-02  0  0.8440E-02  0  0.1198E-01  0  0.1577E-01
   (  2, 95,106)  (  1, 97,104)  (  1, 95,106)  (  1, 94,107)  (  1, 98,103)
  0  0.2471E-01  0  0.4275E-01  0  0.4592E-01  0  0.1049      0  0.9442E-01
   (  1,126,103)  (  1, 98,103)  (  1, 99,102)  (  2,248,106)  (  1, 99,102)
  0  0.5530E-01  0  0.5740E-01  0  0.3874E-01  0  0.3991E-01  0  0.3544E-01
   (  1, 98,103)  (  1,122,110)  (  1, 96,105)  (  2, 55,106)  (  1, 55,106)
  0  0.4071E-01  0  0.7846E-01  0  0.1019      0  0.6455E-01  0  0.6639E-01
   (  2, 97,104)  (  2, 96,105)  (  2, 97,104)  (  2, 98,103)  (  2, 95,106)
  1  0.2592E-01  0 -0.1417E-01  0 -0.1075E-01  0  0.1574E-01  0 -0.1143E-01
   (  1, 55,106)  (  1, 56,106)  (  1, 96,105)  (  1, 96,105)  (  1, 96,105)
  0  0.1446E-01  0 -0.2173E-01  0  0.2326E-01  0  0.8838E-02  0  0.1213E-01
   (  2, 55,106)  (  2, 55,106)  (  2, 55,106)  (  2, 58,105)  (  2, 95,106)
  0  0.1146E-01  0  0.1708E-01  0  0.1684E-01  0  0.1629E-01  0  0.2452E-01
   (  2, 99,102)  (  2,100,101)  (  2, 94,107)  (  2, 98,103)  (  2,122,110)
  0  0.3280E-01  0  0.2229E-01  0  0.1604E-01  0  0.1328E-01  0  0.2822E-01
   (  2, 94,107)  (  2,100,101)  (  2, 99,102)  (  2, 95,106)  (  2, 55,106)
  0  0.4657E-01  0  0.3824E-01  0  0.2608E-01  0  0.2400E-01  0  0.1878E-01
   (  2, 98,103)  (  2, 58, 96)  (  2, 98,103)  (  2, 57,106)  (  2, 58,105)
  0  0.2275E-01  0  0.1675E-01  0  0.2371E-01  0  0.3171E-01  0  0.2503E-01
   (  2, 98,103)  (  1,124,106)  (  2, 98,103)  (  2, 57,106)  (  1, 95,106)
  1  0.2783E-01  0 -0.1234E-01  0  0.9254E-02  0  0.9379E-02  0  0.7106E-02
   (  2, 55,106)  (  2, 57,106)  (  1, 95,106)  (  1, 96,105)  (  1, 95,106)
  0  0.6102E-02  0  0.1303E-01  0 -0.5640E-02  0  0.8955E-02  0  0.1075E-01
   (  1,124,107)  (  1, 55,106)  (  1, 57,106)  (  1, 94,107)  (  1, 97,104)
  0  0.7840E-02  0  0.8601E-02  0  0.6736E-02  0  0.9219E-02  0  0.1156E-01
   (  1, 99,102)  (  1, 97,104)  (  1, 93,108)  (  1, 94,107)  (  2,122,111)
  0  0.2689E-01  0  0.3721E-01  0  0.4159E-01  0  0.5757E-01  0  0.6326E-01
   (  1,123,108)  (  1, 98,103)  (  1, 99,102)  (  1,123,109)  (  2,123,109)
  0  0.5812E-01  0  0.1283      0  0.1659      0  0.1032      0  0.1229    
   (  2, 99,102)  (  2,100,101)  (  1, 96,105)  (  2,241,112)  (  2, 55,106)
  0  0.8946E-01  0  0.8073E-01  0  0.6996E-01  0  0.4295E-01  0  0.1791E-01
   (  1, 96,105)  (  2, 97,104)  (  2, 96,105)  (  2, 97,104)  (  2, 96,105)
  1  0.1525E-01  0 -0.6620E-02  0 -0.7686E-02  0  0.9136E-02  0  0.1183E-01
   (  2, 55,106)  (  2, 57,106)  (  1,126,103)  (  2, 97,104)  (  2, 98,103)
  0  0.1564E-01  0 -0.1253E-01  0  0.1344E-01  0  0.1734E-01  0  0.1331E-01
   (  2, 55,106)  (  2, 55,106)  (  2, 57,106)  (  2, 97,104)  (  2, 94,107)
  0  0.1669E-01  0  0.1328E-01  0  0.9414E-02  0  0.9119E-02  0  0.1055E-01
   (  2, 97,104)  (  2, 98,103)  (  2, 97,104)  (  2, 96,105)  (  2, 97,104)
  0  0.2740E-01  0  0.1251E-01  0  0.1271E-01  0  0.9367E-02  0  0.8186E-02
   (  2, 96,105)  (  2, 94,107)  (  2, 96,105)  (  2, 98,103)  (  2, 96,105)
  0  0.6977E-02  0  0.9250E-02  0  0.8786E-02  0  0.1728E-01  0  0.7941E-02
   (  2, 95,106)  (  2, 69, 56)  (  2, 95,106)  (  2, 55,106)  (  2, 58,105)
  0  0.1109E-01  0  0.1458E-01  0  0.1516E-01  0  0.2292E-01  0  0.2237E-01
   (  2, 57,106)  (  2, 55, 68)  (  2, 59,104)  (  2, 55,106)  (  2, 58,105)
  1  0.1281E-01  0 -0.6281E-02  0  0.6192E-02  0  0.7481E-02  0  0.8208E-02
   (  2, 55,106)  (  2, 57,106)  (  2, 95,106)  (  2, 97,104)  (  2,122,110)
  0  0.6653E-02  0 -0.1082E-01  0  0.6407E-02  0  0.7309E-02  0  0.6721E-02
   (  2,123,109)  (  2, 55,106)  (  2,122,110)  (  2,122,110)  (  2, 94,107)
  0  0.5310E-02  0  0.5740E-02  0  0.4574E-02  0  0.3938E-02  0  0.7038E-02
   (  2, 95,106)  (  2,122,111)  (  2,123,108)  (  2,100,101)  (  2, 98,103)
  0  0.1331E-01  0  0.2136E-01  0  0.2391E-01  0  0.2206E-01  0  0.2894E-01
   (  2, 95,106)  (  2, 63, 58)  (  2, 52, 84)  (  2, 48, 91)  (  2, 94,107)
  0  0.3610E-01  0  0.2912E-01  0  0.2133E-01  0  0.2387E-01  0  0.4312E-01
   (  2,100,101)  (  2, 97,104)  (  2, 95,106)  (  2, 55,106)  (  2, 97,104)
  0  0.4052E-01  0  0.2390E-01  0  0.1718E-01  0  0.2758E-01  0  0.1619E-01
   (  2, 96,105)  (  2, 97,104)  (  2, 98,103)  (  2, 57,106)  (  1, 57,106)
  1  0.1582E-01  0 -0.8408E-02  0  0.4534E-02  0 -0.6156E-02  0  0.6563E-02
   (  2, 55,106)  (  2, 57,106)  (  1, 95,106)  (  2, 95,106)  (  1, 98,103)
  0  0.7025E-02  0  0.1121E-01  0  0.4441E-02  0  0.6928E-02  0 -0.6355E-02
   (  1,124,107)  (  1, 55,106)  (  1,126,103)  (  1, 57,106)  (  2,100,101)
  0 -0.6246E-02  0  0.5561E-02  0  0.4855E-02  0  0.5961E-02  0  0.5081E-02
   (  2, 94,107)  (  1, 96,105)  (  1, 95,106)  (  1, 96,105)  (  2,122,111)
  0  0.1028E-01  0  0.1051E-01  0  0.1182E-01  0  0.9183E-02  0  0.8384E-02
   (  2,243, 33)  (  2,230, 36)  (  1, 99,102)  (  2,238, 28)  (  1, 99,102)
  0  0.6740E-02  0  0.1625E-01  0  0.1919E-01  0  0.1265E-01  0  0.7826E-02
   (  1,128,100)  (  1,125,105)  (  1,126,103)  (  1,123,108)  (  2, 97,104)
  0  0.8311E-02  0  0.6489E-02  0  0.1743E-01  0  0.2602E-01  0  0.3789E-01
   (  1, 57,106)  (  1, 94,107)  (  2, 97,104)  (  1,126,103)  (  1, 94,107)
  1  0.1390E-01  0 -0.1083E-01  0  0.6739E-02  0  0.3156E-02  0  0.5245E-02
   (  2, 55,106)  (  2, 57,106)  (  2, 55,106)  (  2, 96,105)  (  2, 97,104)
  0  0.4588E-02  0  0.4848E-02  0  0.7307E-02  0  0.5799E-02  0  0.5544E-02
   (  2, 96,105)  (  2,125,105)  (  1, 55,106)  (  2,123,109)  (  2,125,105)
  0  0.3293E-02  0  0.4168E-02  0  0.3423E-02  0  0.3793E-02  0  0.6663E-02
   (  2, 96,105)  (  2, 99,102)  (  2, 98,103)  (  1, 94,107)  (  2, 98,103)
  0  0.8756E-02  0  0.1012E-01  0  0.1103E-01  0  0.2658E-01  0  0.3050E-01
   (  2, 99,102)  (  2, 98,103)  (  1, 98,103)  (  2, 98,103)  (  2, 52, 75)
  0  0.3740E-01  0  0.3521E-01  0  0.5670E-01  0  0.3767E-01  0  0.8229E-01
   (  2, 95,106)  (  2, 96,105)  (  2, 57,106)  (  2, 58,105)  (  2, 57,106)
  0  0.5503E-01  0  0.5724E-01  0  0.3966E-01  0  0.1743E-01  0  0.1289E-01
   (  2,122,111)  (  2, 95,106)  (  2, 97,104)  (  2, 95,106)  (  1, 97,104)
  1  0.8036E-02  0 -0.9165E-02  0  0.4773E-02  0 -0.5472E-02  0  0.4157E-02
   (  2, 55,106)  (  2, 57,106)  (  1, 94,107)  (  2, 57,106)  (  1, 97,104)
  0 -0.6719E-02  0  0.8981E-02  0 -0.5913E-02  0  0.1040E-01  0  0.5649E-02
   (  2, 97,104)  (  1, 55,106)  (  2, 56, 99)  (  1, 55,106)  (  1, 97,104)
  0 -0.4278E-02  0  0.4654E-02  0 -0.3766E-02  0  0.2920E-02  0  0.3238E-02
   (  2, 99,102)  (  1,100,101)  (  2, 99,102)  (  1,100,101)  (  1,124,106)
  0  0.6430E-02  0  0.5273E-02  0  0.3664E-02  0  0.3905E-02  0  0.5999E-02
   (  2,245,100)  (  2,244,109)  (  1, 97,104)  (  2,241,110)  (  2,241,110)
  0  0.3826E-02  0  0.2643E-02  0  0.3370E-02  0 -0.4642E-02  0  0.8939E-02
   (  1, 98,103)  (  2, 98,103)  (  2, 93,108)  (  2, 55,106)  (  2, 55,106)
  0  0.6131E-02  0  0.9502E-02  0  0.1078E-01  0  0.2700E-01  0  0.3083E-01
   (  2, 97,104)  (  2, 95,106)  (  2,123,108)  (  2, 98,103)  (  2,123,108)
  1  0.7369E-02  0 -0.4827E-02  0 -0.3856E-02  0  0.2951E-02  0 -0.2943E-02
   (  1, 55,106)  (  1, 57,106)  (  2, 98,103)  (  1, 96,105)  (  2, 98,103)
  0 -0.3500E-02  0 -0.5487E-02  0  0.3857E-02  0 -0.3662E-02  0 -0.3232E-02
   (  2, 97,104)  (  2, 55,106)  (  2, 55,106)  (  2, 55,106)  (  2, 96,105)
  0  0.3148E-02  0  0.2906E-02  0  0.2680E-02  0  0.3629E-02  0  0.3951E-02
   (  1,126,103)  (  1, 97,104)  (  1, 98,103)  (  1, 94,107)  (  1, 98,103)
  0  0.4785E-02  0  0.3815E-02  0  0.6406E-02  0  0.6986E-02  0  0.7070E-02
   (  1, 97,104)  (  1, 98,103)  (  1, 97,104)  (  1, 98,103)  (  1, 99,102)
  0  0.7784E-02  0  0.9155E-02  0  0.1453E-01  0  0.9826E-02  0  0.1457E-01
   (  1, 98,103)  (  2,249, 50)  (  1, 57,106)  (  2,242, 60)  (  1, 57,106)
  0  0.1209E-01  0  0.9178E-02  0  0.7854E-02  0  0.6932E-02  0  0.6576E-02
   (  1,125,104)  (  1,124,106)  (  1, 99,102)  (  1, 97,104)  (  1,126,103)
  1  0.6166E-02  0 -0.3043E-02  0 -0.2047E-02  0  0.2790E-02  0  0.2554E-02
   (  2, 55,106)  (  2, 57,106)  (  2, 98,103)  (  2, 98,103)  (  2,122,110)
  0  0.2916E-02  0 -0.3762E-02  0  0.3005E-02  0  0.3017E-02  0  0.3690E-02
   (  2, 55,106)  (  2, 55,106)  (  2, 97,104)  (  2, 98,103)  (  2,123,108)
  0  0.3721E-02  0  0.4395E-02  0  0.2962E-02  0  0.2201E-02  0  0.2965E-02
   (  2, 96,105)  (  2, 97,104)  (  2, 96,105)  (  2, 97,104)  (  2, 99,102)
  0  0.1128E-01  0  0.1369E-01  0  0.9961E-02  0  0.1075E-01  0  0.5228E-02
   (  2, 95,106)  (  2, 94,107)  (  2,100,101)  (  2, 94,107)  (  2, 65,105)
  0  0.3494E-02  0  0.6449E-02  0  0.9718E-02  0  0.7684E-02  0  0.5987E-02
   (  2,100,101)  (  2, 50, 80)  (  2, 51, 76)  (  2, 48, 88)  (  1, 57,106)
  0  0.4177E-02  0  0.7174E-02  0  0.8875E-02  0  0.1487E-01  0  0.1235E-01
   (  2, 51, 84)  (  1,124,106)  (  2,123,108)  (  2, 96,105)  (  1, 99,102)
  1  0.3129E-02  0 -0.3708E-02  0  0.2911E-02  0  0.2705E-02  0  0.2515E-02
   (  1, 55,106)  (  1, 57,106)  (  1, 55,106)  (  2, 96,105)  (  2,123,109)
  0  0.1661E-02  0 -0.4372E-02  0  0.3226E-02  0 -0.3414E-02  0  0.1786E-02
   (  2,125,105)  (  2, 55,106)  (  2, 55,106)  (  2, 55,106)  (  2,125,104)
  0  0.1505E-02  0  0.1764E-02  0  0.1868E-02  0  0.2402E-02  0  0.2598E-02
   (  2, 98,103)  (  1, 96,105)  (  1, 99,102)  (  1, 94,107)  (  1,124,106)
  0  0.4689E-02  0  0.4012E-02  0  0.6009E-02  0  0.6630E-02  0  0.9000E-02
   (  2,164, 27)  (  1, 97,104)  (  1, 98,103)  (  1, 94,107)  (  1, 98,103)
  0  0.1037E-01  0  0.9400E-02  0  0.1217E-01  0  0.2139E-01  0  0.2488E-01
   (  1,127,102)  (  1, 98,103)  (  1, 97,104)  (  1,127,101)  (  1,126,103)
  0  0.1316E-01  0  0.1107E-01  0  0.7298E-02  0  0.9366E-02  0  0.7443E-02
   (  1, 96,105)  (  1, 57,106)  (  2,100,101)  (  2, 98,103)  (  2, 95,106)
  1  0.2322E-02  0 -0.3048E-02  0  0.2564E-02  0  0.2631E-02  0  0.3382E-02
   (  1, 55,106)  (  1, 57,106)  (  1, 55,106)  (  2, 96,105)  (  2, 97,104)
  0  0.3939E-02  0  0.4192E-02  0  0.3656E-02  0  0.3774E-02  0  0.2699E-02
   (  2, 96,105)  (  2, 97,104)  (  2, 96,105)  (  2, 97,104)  (  2, 98,103)
  0  0.3407E-02  0 -0.2690E-02  0  0.4161E-02  0  0.1912E-02  0  0.3530E-02
   (  2, 57,106)  (  2, 55,106)  (  2, 57,106)  (  2, 97,104)  (  2, 98,103)
  0  0.4336E-02  0  0.4834E-02  0  0.4780E-02  0  0.5257E-02  0  0.2458E-02
   (  2, 96,105)  (  2, 98,103)  (  2, 96,105)  (  2, 59, 93)  (  2, 55,106)
  0  0.2388E-02  0  0.2686E-02  0  0.2254E-02  0  0.3624E-02  0  0.3983E-02
   (  2,100,101)  (  2, 98,103)  (  2, 95,106)  (  2, 98,103)  (  2, 99,102)
  0  0.4672E-02  0  0.8619E-02  0  0.9378E-02  0  0.7350E-02  0  0.7095E-02
   (  2, 95,106)  (  1, 55,106)  (  2, 99,102)  (  2, 95,106)  (  2, 94,107)
  1  0.1446E-02  0 -0.2222E-02  0  0.2688E-02  0 -0.1844E-02  0  0.1584E-02
   (  1, 55,106)  (  1, 57,106)  (  1, 55,106)  (  2, 97,104)  (  2, 97,104)
  0 -0.2138E-02  0 -0.1365E-02  0  0.1490E-02  0 -0.1178E-02  0  0.9023E-03
   (  2, 97,104)  (  2, 98,103)  (  2, 98,103)  (  2, 98,103)  (  2, 94,107)
  0  0.1662E-02  0 -0.1679E-02  0  0.3302E-02  0 -0.1786E-02  0  0.2458E-02
   (  2,122,111)  (  2, 55,106)  (  2, 57,106)  (  2, 55,106)  (  2,122,110)
  0  0.6008E-02  0  0.5123E-02  0  0.5183E-02  0  0.4336E-02  0  0.1011E-01
   (  2,119,112)  (  2, 95,106)  (  2, 98,103)  (  2,100,101)  (  2, 98,103)
  0  0.2061E-01  0  0.1945E-01  0  0.2138E-01  0  0.1662E-01  0  0.1994E-01
   (  2, 97,104)  (  2,100,101)  (  2, 94,107)  (  2, 96,105)  (  1, 57,106)
  0  0.1966E-01  0  0.1358E-01  0  0.9920E-02  0  0.1150E-01  0  0.7921E-02
   (  2, 49, 78)  (  2, 57,106)  (  2, 98,103)  (  2, 96,105)  (  2, 95,106)
  1  0.2059E-02  0 -0.2225E-02  0  0.2606E-02  0 -0.1777E-02  0 -0.2417E-02
   (  2, 96,105)  (  2, 96,105)  (  1, 55,106)  (  1, 57,106)  (  2, 96,105)
  0  0.2073E-02  0 -0.1935E-02  0  0.1787E-02  0 -0.1868E-02  0 -0.2463E-02
   (  1,124,107)  (  2, 55,106)  (  1, 94,107)  (  2, 98,103)  (  2, 97,104)
  0 -0.3444E-02  0  0.1840E-02  0 -0.1805E-02  0 -0.1682E-02  0  0.1593E-02
   (  2, 55,106)  (  2, 57,106)  (  2, 55,106)  (  2, 98,103)  (  1, 93,108)
  0  0.3060E-02  0  0.1842E-02  0  0.1498E-02  0  0.1205E-02  0  0.7176E-03
   (  2,241, 32)  (  2,234, 31)  (  1, 99,102)  (  1, 96,105)  (  2,237, 26)
  0  0.6016E-03  0  0.1021E-02  0  0.1434E-02  0  0.1911E-02  0  0.2242E-02
   (  2,122,110)  (  1, 97,104)  (  2,246,104)  (  2,245,108)  (  2,247,112)
  0  0.3173E-02  0  0.3293E-02  0  0.3713E-02  0  0.3926E-02  0  0.3395E-02
   (  1, 57,106)  (  2,250,108)  (  1, 57,106)  (  2,247,112)  (  2,123,108)

 MAXIMUM RESIDUAL FOR EACH ITERATION (1 INDICATES THE FIRST INNER ITERATION):

    RESIDUAL       RESIDUAL       RESIDUAL       RESIDUAL       RESIDUAL    
   LAYER,ROW,COL  LAYER,ROW,COL  LAYER,ROW,COL  LAYER,ROW,COL  LAYER,ROW,COL
 ---------------------------------------------------------------------------
  1  0.1839E+07  0  0.1403E+07  0  0.9559E+06  0  0.1114E+07  0 -0.5262E+06
   (  1, 94, 85)  (  1,126,103)  (  1, 58,105)  (  1, 57,106)  (  1, 94, 86)
  0 -0.5437E+06  0  0.3558E+06  0 -0.3320E+06  0  0.3196E+06  0 -0.2466E+06
   (  1, 99,102)  (  1, 99,102)  (  1, 96,105)  (  1, 96,105)  (  1, 58,105)
  0 -0.2731E+06  0 -0.3800E+06  0 -0.4989E+06  0 -0.5977E+06  0  0.6915E+06
   (  1, 96,105)  (  1, 95,106)  (  1, 96,105)  (  1, 95,106)  (  1, 97,104)
  0 -0.1043E+07  0 -0.1044E+07  0 -0.1396E+07  0  0.1473E+07  0  0.9117E+06
   (  1, 99,102)  (  1, 98,103)  (  1, 99,102)  (  1, 94,107)  (  1, 98,103)
  0 -0.1101E+07  0  0.9152E+06  0 -0.6267E+06  0  0.6384E+06  0 -0.4811E+06
   (  1, 98,103)  (  1, 98,103)  (  1, 98,103)  (  1, 98,103)  (  1, 94,107)
  0 -0.6193E+06  0 -0.6364E+06  0  0.4692E+06  0 -0.6168E+06  0 -0.8733E+06
   (  1, 57,106)  (  1, 58,105)  (  1,122,110)  (  2, 98,103)  (  2, 97,104)
  1  0.1691E+07  0 -0.1586E+07  0 -0.5213E+06  0  0.5266E+06  0 -0.4254E+06
   (  2, 97,104)  (  2, 97,104)  (  2, 98,103)  (  1, 58,105)  (  2, 97,104)
  0  0.2484E+06  0 -0.1616E+06  0 -0.1999E+06  0 -0.2543E+06  0 -0.2293E+06
   (  2, 97,104)  (  1,141, 96)  (  2, 96,105)  (  1, 58,105)  (  1, 57,106)
  0 -0.2204E+06  0 -0.2581E+06  0  0.2981E+06  0  0.3498E+06  0 -0.3586E+06
   (  2, 96,105)  (  2, 95,106)  (  1, 93,108)  (  1,100,101)  (  1,100,101)
  0 -0.4452E+06  0 -0.5959E+06  0  0.7227E+06  0 -0.5037E+06  0  0.4346E+06
   (  1, 96,105)  (  1, 97,104)  (  1, 97,104)  (  1, 97,104)  (  1, 97,104)
  0 -0.4686E+06  0  0.3662E+06  0  0.4076E+06  0  0.2210E+06  0  0.2685E+06
   (  1, 97,104)  (  1, 97,104)  (  1, 98,103)  (  1, 97,104)  (  1, 98,103)
  0  0.3834E+06  0  0.4314E+06  0  0.4145E+06  0  0.5912E+06  0 -0.7525E+06
   (  1,100,101)  (  1,249,109)  (  2, 58,105)  (  1,100,101)  (  1,100,101)
  1 -0.8451E+06  0 -0.5467E+06  0  0.7405E+06  0  0.3493E+06  0 -0.2836E+06
   (  1, 99,102)  (  1,100,101)  (  1, 58,105)  (  1, 57,106)  (  2, 97,104)
  0  0.1974E+06  0 -0.2653E+06  0  0.1932E+06  0  0.1957E+06  0 -0.2078E+06
   (  2, 97,104)  (  1, 94,107)  (  2, 97,104)  (  1,100,101)  (  2, 58,105)
  0 -0.1670E+06  0  0.2622E+06  0 -0.2278E+06  0  0.3997E+06  0 -0.2941E+06
   (  2, 57,106)  (  1,100,101)  (  1, 94,107)  (  1, 94,107)  (  1, 94,107)
  0 -0.7872E+06  0  0.6635E+06  0 -0.7456E+06  0 -0.9411E+06  0  0.9366E+06
   (  1, 95,106)  (  1, 95,106)  (  1,100,101)  (  1, 99,102)  (  1, 99,102)
  0 -0.1116E+07  0  0.7958E+06  0  0.6423E+06  0  0.3852E+06  0 -0.5414E+06
   (  1, 99,102)  (  1, 99,102)  (  1, 98,103)  (  1, 99,102)  (  1, 57,106)
  0 -0.1143E+07  0 -0.4979E+06  0  0.4241E+06  0  0.9189E+06  0 -0.5971E+06
   (  1, 58,105)  (  1, 57,106)  (  1,249,109)  (  2, 96,105)  (  2, 96,105)
  1  0.7213E+06  0 -0.3536E+06  0  0.3135E+06  0  0.2554E+06  0 -0.2749E+06
   (  1, 96,105)  (  1, 96,105)  (  1, 58,105)  (  1, 96,105)  (  1, 96,105)
  0 -0.2580E+06  0 -0.3838E+06  0 -0.2574E+06  0 -0.3153E+06  0 -0.3273E+06
   (  1, 95,106)  (  1, 94,107)  (  1, 58,105)  (  1, 57,106)  (  1, 94,107)
  0  0.2477E+06  0  0.2645E+06  0 -0.2692E+06  0  0.3127E+06  0 -0.2681E+06
   (  1, 96,105)  (  1, 97,104)  (  1, 97,104)  (  1, 94,107)  (  1, 97,104)
  0 -0.6911E+06  0 -0.3898E+06  0 -0.1933E+06  0  0.2010E+06  0 -0.2658E+06
   (  1, 98,103)  (  1, 97,104)  (  1, 98,103)  (  1, 98,103)  (  1, 98,103)
  0  0.2306E+06  0 -0.1613E+06  0  0.2320E+06  0  0.2580E+06  0 -0.3630E+06
   (  1, 98,103)  (  1, 98,103)  (  1, 98,103)  (  2, 97,104)  (  2, 97,104)
  0 -0.4277E+06  0 -0.4162E+06  0 -0.3181E+06  0  0.4012E+06  0  0.2193E+06
   (  1, 58,105)  (  1, 57,106)  (  2, 97,104)  (  1,249,109)  (  1,127,102)
  1 -0.3172E+06  0  0.2076E+06  0  0.2313E+06  0 -0.1810E+06  0  0.1998E+06
   (  2, 98,103)  (  2, 98,103)  (  1, 58,105)  (  2, 98,103)  (  2, 98,103)
  0 -0.1972E+06  0 -0.2475E+06  0 -0.1518E+06  0 -0.2047E+06  0 -0.1413E+06
   (  1, 93,108)  (  1, 94,107)  (  1, 58,105)  (  1, 57,106)  (  1, 94,107)
  0 -0.1600E+06  0  0.1722E+06  0  0.1505E+06  0  0.2173E+06  0 -0.1242E+06
   (  2, 96,105)  (  2, 96,105)  (  1, 93,108)  (  1, 94,107)  (  1, 97, 84)
  0  0.6350E+06  0 -0.3862E+06  0  0.3000E+06  0 -0.2884E+06  0  0.3954E+06
   (  2, 99,102)  (  2, 99,102)  (  2, 99,102)  (  1,125,105)  (  1, 99,102)
  0  0.6155E+06  0 -0.7780E+06  0  0.9550E+06  0 -0.1186E+07  0  0.1040E+07
   (  1, 98,103)  (  1, 98,103)  (  1, 98,103)  (  1, 98,103)  (  1, 98,103)
  0 -0.1013E+07  0 -0.9376E+06  0 -0.1374E+07  0 -0.7565E+06  0 -0.5260E+06
   (  1, 57,106)  (  1, 98,103)  (  1, 97,104)  (  1, 98,103)  (  1, 97,104)
  1  0.2888E+06  0  0.1992E+06  0 -0.2897E+06  0  0.3273E+06  0 -0.2599E+06
   (  1, 97,104)  (  2, 57,106)  (  1, 97,104)  (  1, 97,104)  (  1, 97,104)
  0  0.2567E+06  0  0.2240E+06  0 -0.2558E+06  0 -0.2215E+06  0  0.2090E+06
   (  1, 97,104)  (  1, 98,103)  (  1, 57,106)  (  1, 58,105)  (  1, 96,105)
  0  0.2244E+06  0  0.1962E+06  0 -0.1736E+06  0  0.2260E+06  0 -0.1369E+06
   (  1, 95,106)  (  1, 94,107)  (  1,100,101)  (  1, 94,107)  (  1, 97, 84)
  0 -0.2376E+06  0  0.2351E+06  0  0.1231E+06  0 -0.9984E+05  0  0.1195E+06
   (  2, 98,103)  (  2, 98,103)  (  2, 99,102)  (  1,126,103)  (  1,126,103)
  0 -0.1289E+06  0 -0.1181E+06  0  0.1376E+06  0 -0.1057E+06  0  0.1059E+06
   (  1,126,103)  (  2, 99,102)  (  2, 99,102)  (  1,126,103)  (  1,126,103)
  0 -0.1935E+06  0 -0.2018E+06  0  0.2925E+06  0 -0.3526E+06  0  0.4220E+06
   (  1, 57,106)  (  1, 58,105)  (  1, 99,102)  (  1, 99,102)  (  1, 99,102)
  1 -0.2381E+06  0 -0.1718E+06  0  0.2026E+06  0  0.1502E+06  0  0.1036E+06
   (  1, 99,102)  (  1,100,101)  (  1, 57,106)  (  1,100,101)  (  1, 99,102)
  0 -0.1453E+06  0  0.1405E+06  0 -0.1143E+06  0 -0.1160E+06  0  0.1252E+06
   (  1, 96,105)  (  1, 96,105)  (  1, 96,105)  (  2, 58,105)  (  1, 96,105)
  0 -0.1360E+06  0 -0.1416E+06  0 -0.1121E+06  0  0.1514E+06  0 -0.1224E+06
   (  1,100,101)  (  1, 99,102)  (  1, 94,107)  (  1, 94,107)  (  1, 98,103)
  0  0.5467E+06  0 -0.3314E+06  0  0.2819E+06  0 -0.3078E+06  0 -0.3462E+06
   (  1, 98,103)  (  1, 98,103)  (  1, 98,103)  (  1, 98,103)  (  1, 97,104)
  0  0.2726E+06  0 -0.2224E+06  0  0.2180E+06  0  0.4264E+06  0 -0.3323E+06
   (  1, 97,104)  (  1, 97,104)  (  1, 97,104)  (  1,126,103)  (  1, 96,105)
  0 -0.4725E+06  0  0.3811E+06  0  0.4585E+06  0 -0.2710E+06  0  0.3137E+06
   (  1, 58,105)  (  1, 96,105)  (  1, 95,106)  (  1, 95,106)  (  1,126,103)
  1  0.9597E+05  0  0.1129E+06  0  0.1150E+06  0  0.1437E+06  0 -0.1427E+06
   (  1,125,104)  (  1, 57,106)  (  1,126,103)  (  2, 97,104)  (  2, 97,104)
  0  0.1498E+06  0 -0.1364E+06  0 -0.1853E+06  0 -0.1259E+06  0 -0.1064E+06
   (  2, 97,104)  (  1, 57,106)  (  1, 58,105)  (  1, 57,106)  (  2, 97,104)
  0  0.1102E+06  0  0.1161E+06  0 -0.1045E+06  0  0.1430E+06  0  0.8733E+05
   (  1, 99,102)  (  1,100,101)  (  1,100,101)  (  1, 94,107)  (  1, 93,108)
  0 -0.1656E+06  0 -0.1847E+06  0  0.1751E+06  0 -0.1229E+06  0  0.1709E+06
   (  1,126,103)  (  1, 96,105)  (  1, 96,105)  (  1, 96,105)  (  1, 96,105)
  0  0.1436E+06  0 -0.1659E+06  0  0.1583E+06  0  0.1192E+06  0  0.1104E+06
   (  1, 97,104)  (  1, 97,104)  (  1, 97,104)  (  1, 98,103)  (  1, 58,105)
  0 -0.1838E+06  0  0.1483E+06  0 -0.3919E+06  0 -0.3640E+06  0 -0.3913E+06
   (  1, 58,105)  (  1, 98,103)  (  1, 98,103)  (  1, 99,102)  (  1, 98,103)
  1 -0.2169E+06  0 -0.1346E+06  0 -0.8713E+05  0 -0.1251E+06  0  0.9834E+05
   (  1, 99,102)  (  1, 98,103)  (  1, 98,103)  (  1, 99,102)  (  1, 99,102)
  0  0.1021E+06  0  0.1003E+06  0 -0.1108E+06  0 -0.8023E+05  0  0.8325E+05
   (  1, 98,103)  (  1, 97,104)  (  1, 58,105)  (  1, 57,106)  (  1, 97,104)
  0 -0.1144E+06  0  0.9308E+05  0 -0.8642E+05  0 -0.9413E+05  0  0.7903E+05
   (  1, 97,104)  (  1,100,101)  (  1, 97,104)  (  1, 96,105)  (  1, 96,105)
  0 -0.2376E+06  0  0.2075E+06  0  0.1694E+06  0  0.2171E+06  0 -0.2218E+06
   (  1, 96,105)  (  1, 96,105)  (  1, 95,106)  (  1, 96,105)  (  1,126,103)
  0 -0.2098E+06  0  0.3325E+06  0 -0.2866E+06  0  0.4208E+06  0 -0.4109E+06
   (  2, 95,106)  (  2, 95,106)  (  1,126,103)  (  1,126,103)  (  1, 57,106)
  0 -0.3981E+06  0 -0.2802E+06  0 -0.2164E+06  0 -0.2375E+06  0  0.2018E+06
   (  1,126,103)  (  1, 98,103)  (  2, 97,104)  (  1,126,103)  (  1,126,103)
  1  0.1200E+06  0  0.1000E+06  0  0.1016E+06  0 -0.1213E+06  0  0.1160E+06
   (  1, 58,105)  (  1, 57,106)  (  2, 98,103)  (  2, 98,103)  (  2, 98,103)
  0 -0.8161E+05  0 -0.7189E+05  0 -0.8284E+05  0 -0.8282E+05  0 -0.6138E+05
   (  1,127,102)  (  1, 57,106)  (  1,126,103)  (  1, 93,108)  (  2, 97,104)
  0 -0.7256E+05  0  0.8810E+05  0 -0.6813E+05  0  0.1014E+06  0  0.6465E+05
   (  1, 97,104)  (  1,100,101)  (  1,100,101)  (  1, 94,107)  (  1, 93,108)
  0 -0.8414E+05  0  0.8451E+05  0 -0.5853E+05  0  0.5616E+05  0  0.4563E+05
   (  1,126,103)  (  1, 96,105)  (  1,100,101)  (  1, 96,105)  (  1, 97,104)
  0 -0.7291E+05  0  0.7496E+05  0 -0.1046E+06  0 -0.5652E+05  0 -0.8730E+05
   (  1, 97,104)  (  1, 97,104)  (  1, 97,104)  (  1, 58,105)  (  1, 57,106)
  0 -0.1015E+06  0  0.6255E+05  0 -0.5477E+05  0  0.7391E+05  0  0.8917E+05
   (  1, 97,104)  (  1, 97,104)  (  2, 95,106)  (  2, 95,106)  (  1, 57,106)
  1  0.6971E+05  0 -0.4380E+05  0  0.6144E+05  0 -0.6636E+05  0  0.6427E+05
   (  1, 58,105)  (  1,125,105)  (  2, 98,103)  (  2, 98,103)  (  2, 98,103)
  0 -0.4505E+05  0 -0.5269E+05  0  0.4775E+05  0 -0.5337E+05  0 -0.4757E+05
   (  1, 58,105)  (  1, 57,106)  (  2, 98,103)  (  1, 93,108)  (  2, 97,104)
  0  0.3517E+05  0  0.3943E+05  0 -0.5031E+05  0  0.7045E+05  0  0.4066E+05
   (  2, 97,104)  (  1, 94,107)  (  1,100,101)  (  1, 94,107)  (  1, 93,108)
  0 -0.1317E+06  0  0.1572E+06  0 -0.1002E+06  0  0.7872E+05  0  0.1365E+06
   (  2, 95,106)  (  1, 94,107)  (  1, 94,107)  (  1, 98,103)  (  1, 99,102)
  0  0.1921E+06  0 -0.1477E+06  0 -0.1428E+06  0  0.1722E+06  0 -0.1657E+06
   (  1, 96,105)  (  1, 96,105)  (  1, 58,105)  (  1, 96,105)  (  1, 98,103)
  0 -0.1844E+06  0  0.2799E+06  0 -0.1098E+06  0 -0.1498E+06  0  0.1032E+06
   (  1, 97,104)  (  1, 97,104)  (  1, 97,104)  (  1, 58,105)  (  1, 97,104)
  1 -0.8334E+05  0  0.6920E+05  0 -0.6017E+05  0 -0.7452E+05  0  0.8811E+05
   (  1, 97,104)  (  1, 97,104)  (  2, 58,105)  (  1, 97,104)  (  1, 97,104)
  0 -0.1049E+06  0  0.7559E+05  0 -0.9221E+05  0  0.4699E+05  0 -0.7550E+05
   (  1, 97,104)  (  1, 97,104)  (  1, 97,104)  (  1, 97,104)  (  1, 58,105)
  0 -0.4907E+05  0 -0.3574E+05  0  0.3984E+05  0 -0.4532E+05  0  0.3455E+05
   (  1, 57,106)  (  1, 96,105)  (  2, 95,106)  (  2, 95,106)  (  2, 95,106)
  0 -0.4900E+05  0 -0.6304E+05  0  0.5341E+05  0  0.2998E+05  0 -0.3230E+05
   (  1,126,103)  (  1, 93,108)  (  1, 93,108)  (  1, 94,107)  (  1, 99,102)
  0 -0.4117E+05  0 -0.6187E+05  0 -0.6019E+05  0 -0.5695E+05  0 -0.6841E+05
   (  1,100,101)  (  1, 95,106)  (  1,100,101)  (  1, 95,106)  (  2, 57,106)
  0 -0.4480E+05  0 -0.8357E+05  0  0.7079E+05  0  0.6167E+05  0 -0.1784E+06
   (  1, 94,107)  (  1,126,103)  (  1,126,103)  (  2, 97,104)  (  1, 99,102)
  1  0.6127E+05  0 -0.3905E+05  0 -0.3264E+05  0 -0.3878E+05  0  0.3172E+05
   (  2, 97,104)  (  2, 97,104)  (  2, 58,105)  (  2, 57,106)  (  1,242,110)
  0  0.4444E+05  0 -0.6674E+05  0  0.7507E+05  0 -0.3385E+05  0 -0.4405E+05
   (  1,100,101)  (  1,100,101)  (  1,100,101)  (  1, 58,105)  (  1, 57,106)
  0 -0.3890E+05  0  0.3885E+05  0  0.5320E+05  0 -0.6537E+05  0  0.4116E+05
   (  1, 99,102)  (  1, 99,102)  (  1, 98,103)  (  1, 98,103)  (  1, 98,103)
  0 -0.1145E+06  0 -0.1170E+06  0  0.8969E+05  0 -0.1510E+06  0  0.1535E+06
   (  1, 98,103)  (  1, 97,104)  (  1, 97,104)  (  1, 97,104)  (  1, 94,107)
  0 -0.2026E+06  0 -0.1476E+06  0 -0.2014E+06  0 -0.4723E+06  0 -0.2683E+06
   (  1, 94,107)  (  1, 96,105)  (  1, 95,106)  (  1, 96,105)  (  1, 95,106)
  0  0.1297E+06  0  0.1453E+06  0 -0.5848E+05  0  0.1166E+06  0 -0.1021E+06
   (  2, 58,105)  (  1, 95,106)  (  1, 95,106)  (  1,126,103)  (  1,126,103)
  1 -0.4129E+05  0  0.3816E+05  0 -0.5809E+05  0 -0.5518E+05  0  0.5572E+05
   (  2, 98,103)  (  1, 58,105)  (  1, 58,105)  (  2, 98,103)  (  1,126,103)
  0 -0.6273E+05  0 -0.4513E+05  0  0.6645E+05  0  0.5281E+05  0 -0.3107E+05
   (  1,126,103)  (  1,100,101)  (  1,100,101)  (  1, 99,102)  (  2, 57,106)
  0 -0.3253E+05  0  0.3163E+05  0 -0.2778E+05  0 -0.2522E+05  0  0.2201E+05
   (  1, 99,102)  (  1, 99,102)  (  1, 99,102)  (  1, 98,103)  (  1, 98,103)
  0 -0.5426E+05  0  0.2516E+05  0 -0.3339E+05  0 -0.3518E+05  0  0.2646E+05
   (  1, 98,103)  (  1, 98,103)  (  1, 98,103)  (  1, 97,104)  (  1, 97,104)
  0 -0.1996E+05  0  0.4808E+05  0 -0.3133E+05  0 -0.3794E+05  0  0.5517E+05
   (  1, 97,104)  (  1, 97,104)  (  1, 97,104)  (  1, 96,105)  (  1, 58,105)
  0 -0.3979E+05  0 -0.6534E+05  0  0.8716E+05  0  0.1135E+06  0  0.8403E+05
   (  1, 58,105)  (  1, 96,105)  (  1, 96,105)  (  1, 95,106)  (  1, 94,107)
  1  0.5756E+05  0 -0.2952E+05  0  0.4127E+05  0  0.2206E+05  0 -0.2991E+05
   (  1, 95,106)  (  2, 97,104)  (  1, 57,106)  (  1, 58,105)  (  2, 97,104)
  0 -0.2275E+05  0 -0.2976E+05  0  0.3905E+05  0 -0.1944E+05  0 -0.2618E+05
   (  1, 96,105)  (  1, 94,107)  (  1, 94,107)  (  2, 57,106)  (  1, 94,107)
  0  0.2193E+05  0 -0.2810E+05  0  0.2349E+05  0 -0.1963E+05  0  0.2741E+05
   (  1, 94,107)  (  1, 97,104)  (  1, 97,104)  (  1, 97,104)  (  1, 93,108)
  0  0.4638E+05  0 -0.5376E+05  0  0.5595E+05  0 -0.6754E+05  0 -0.3916E+05
   (  1, 98,103)  (  1, 98,103)  (  1, 98,103)  (  1, 98,103)  (  1, 97,104)
  0 -0.6082E+05  0  0.6278E+05  0 -0.3695E+05  0  0.5146E+05  0 -0.4360E+05
   (  1, 96,105)  (  1,100,101)  (  1, 96,105)  (  1, 96,105)  (  1, 99,102)
  0  0.5428E+05  0  0.3484E+05  0 -0.5019E+05  0  0.7639E+05  0  0.6273E+05
   (  1, 99,102)  (  2, 58,105)  (  1, 99,102)  (  1, 99,102)  (  1,100,101)
  1 -0.5346E+05  0 -0.2949E+05  0  0.3519E+05  0  0.2855E+05  0 -0.2855E+05
   (  1,100,101)  (  1, 99,102)  (  1, 57,106)  (  1, 99,102)  (  1, 99,102)
  0  0.2515E+05  0 -0.1971E+05  0  0.3385E+05  0 -0.2460E+05  0 -0.3090E+05
   (  2, 97,104)  (  1,100,101)  (  1,100,101)  (  2, 58,105)  (  1,100,101)
  0  0.2237E+05  0  0.2673E+05  0 -0.2238E+05  0  0.1633E+05  0  0.1545E+05
   (  1,100,101)  (  1, 99,102)  (  1, 99,102)  (  1, 99,102)  (  1, 93,108)
  0  0.2715E+05  0 -0.6102E+05  0  0.6013E+05  0 -0.4634E+05  0 -0.4877E+05
   (  1, 96,105)  (  1, 96,105)  (  1, 96,105)  (  1, 96,105)  (  1, 95,106)
  0  0.3054E+05  0 -0.5114E+05  0 -0.6992E+05  0 -0.3969E+05  0 -0.6224E+05
   (  1, 95,106)  (  1, 95,106)  (  1, 94,107)  (  1,248,111)  (  1, 58,105)
  0 -0.6227E+05  0 -0.6612E+05  0  0.8087E+05  0 -0.9304E+05  0  0.4699E+05
   (  1, 57,106)  (  1, 97,104)  (  1, 97,104)  (  1, 97,104)  (  1, 97,104)
  1 -0.3573E+05  0  0.2878E+05  0  0.2636E+05  0  0.2597E+05  0  0.3991E+05
   (  1, 97,104)  (  1, 97,104)  (  1, 57,106)  (  1, 58,105)  (  1, 97,104)
  0 -0.2515E+05  0 -0.2454E+05  0 -0.2233E+05  0 -0.1431E+05  0 -0.1623E+05
   (  1, 97,104)  (  1, 94,107)  (  1, 95,106)  (  2, 58,105)  (  1, 94,107)
  0 -0.2061E+05  0  0.2136E+05  0  0.1950E+05  0 -0.1703E+05  0  0.2147E+05
   (  1, 99,102)  (  1, 95,106)  (  1, 96,105)  (  1, 96,105)  (  1, 93,108)
  0  0.3339E+05  0 -0.4894E+05  0  0.4498E+05  0 -0.2804E+05  0 -0.3540E+05
   (  1, 97,104)  (  1, 97,104)  (  1, 97,104)  (  1,248,109)  (  1,126,103)
  0 -0.3522E+05  0  0.4414E+05  0  0.5577E+05  0 -0.7284E+05  0  0.7647E+05
   (  1,125,104)  (  1,248,111)  (  1,248,111)  (  1, 98,103)  (  1, 98,103)
  0  0.3532E+05  0  0.6268E+05  0 -0.3550E+05  0  0.7503E+05  0 -0.8072E+05
   (  1, 99,102)  (  1, 57,106)  (  1, 99,102)  (  1, 99,102)  (  1, 99,102)
  1 -0.3750E+05  0 -0.1888E+05  0  0.2940E+05  0  0.2264E+05  0 -0.2209E+05
   (  1,100,101)  (  1, 99,102)  (  1, 57,106)  (  1, 99,102)  (  1, 96,105)
  0 -0.2493E+05  0 -0.2731E+05  0  0.2263E+05  0 -0.1289E+05  0 -0.1790E+05
   (  1,248,110)  (  1, 96,105)  (  1, 96,105)  (  1, 96,105)  (  1, 99,102)
  0 -0.1644E+05  0 -0.1409E+05  0 -0.1945E+05  0 -0.2870E+05  0  0.2214E+05
   (  1, 98,103)  (  2, 57,106)  (  1, 99,102)  (  1, 98,103)  (  1, 98,103)
  0 -0.2988E+05  0  0.2647E+05  0  0.2346E+05  0 -0.2170E+05  0  0.1742E+05
   (  1, 98,103)  (  1, 94,107)  (  1, 97,104)  (  1, 97,104)  (  1,249,107)
  0 -0.1994E+05  0  0.1489E+05  0 -0.1089E+05  0 -0.1837E+05  0  0.2890E+05
   (  1, 94,107)  (  1, 94,107)  (  1, 94,107)  (  1, 96,105)  (  1, 96,105)
  0 -0.3150E+05  0 -0.5471E+05  0 -0.4273E+05  0  0.4902E+05  0  0.3123E+05
   (  1, 96,105)  (  1, 58,105)  (  1, 57,106)  (  1, 95,106)  (  1, 94,107)
  1  0.3089E+05  0  0.1753E+05  0 -0.2975E+05  0  0.2201E+05  0 -0.1540E+05
   (  1, 99,102)  (  1, 58,105)  (  1, 58,105)  (  1, 99,102)  (  1, 99,102)
  0  0.1332E+05  0 -0.1331E+05  0  0.1123E+05  0  -8896.      0 -0.1121E+05
   (  2, 97,104)  (  2, 97,104)  (  2, 97,104)  (  2, 97,104)  (  1, 99,102)
  0  0.1506E+05  0  0.1122E+05  0   9923.      0  0.1608E+05  0 -0.1141E+05
   (  1, 99,102)  (  2, 58,105)  (  2, 57,106)  (  1, 99,102)  (  1, 99,102)
  0  0.2080E+05  0 -0.2324E+05  0  0.2339E+05  0 -0.5519E+05  0  0.6607E+05
   (  1, 96,105)  (  1, 96,105)  (  1, 96,105)  (  1, 96,105)  (  1, 96,105)
  0 -0.6280E+05  0  0.9013E+05  0 -0.6454E+05  0 -0.7286E+05  0  0.1382E+06
   (  1, 94,107)  (  1, 94,107)  (  1,244,111)  (  1, 97,104)  (  1, 97,104)
  0  0.1106E+06  0  0.3882E+05  0  0.1051E+06  0  0.6869E+05  0 -0.5752E+05
   (  1, 98,103)  (  1,244,111)  (  1, 57,106)  (  1,126,103)  (  1,126,103)
  1  0.2752E+05  0  0.1945E+05  0  0.1693E+05  0 -0.1745E+05  0  0.2053E+05
   (  1,126,103)  (  1, 57,106)  (  1, 58,105)  (  1, 97,104)  (  1, 97,104)
  0 -0.1514E+05  0 -0.1175E+05  0 -0.1317E+05  0 -0.1096E+05  0 -0.1029E+05
   (  1, 97,104)  (  1, 94,107)  (  1, 95,106)  (  1, 94,107)  (  2, 57,106)
  0  -9486.      0   8930.      0  -9363.      0 -0.1016E+05  0   8831.    
   (  1, 95,106)  (  1, 95,106)  (  1, 99,102)  (  1, 96,105)  (  1, 96,105)
  0  0.1222E+05  0  -9875.      0  0.1435E+05  0 -0.1017E+05  0  -9149.    
   (  1,126,103)  (  1, 97,104)  (  1, 97,104)  (  1, 97,104)  (  1,126,103)
  0  -5364.      0  0.1174E+05  0  -9656.      0   7133.      0  -8387.    
   (  1,100,101)  (  1,100,101)  (  1,100,101)  (  1,126,103)  (  1, 57,106)
  0 -0.2073E+05  0   8676.      0   6947.      0 -0.1249E+05  0  0.2207E+05
   (  1, 58,105)  (  1,126,103)  (  2, 95,106)  (  2, 95,106)  (  2, 95,106)
  1 -0.1335E+05  0  0.1106E+05  0  0.1099E+05  0  -7517.      0   7389.    
   (  1, 94,107)  (  1, 57,106)  (  1, 58,105)  (  2, 98,103)  (  2, 98,103)
  0   6418.      0 -0.1066E+05  0  -9196.      0  -5753.      0 -0.1167E+05
   (  1, 94,107)  (  1, 94,107)  (  1, 95,106)  (  2, 58,105)  (  1, 94,107)
  0  -7947.      0  -6081.      0   7347.      0   7364.      0  -5753.    
[...]
        8740.       8735.       8730.       8724.       8719.       8714.       8710.       8705.       8700.       8696.    
        8692.       8688.       8684.       8680.       8676.       8673.       8670.       8666.       8663.       8660.    
        8657.       8655.       8652.       8649.       8647.       8645.       8642.       8640.       8638.       8636.    
        8634.       8633.       8631.       8629.       8628.       8626.       8625.       8624.       8623.       8622.    
        8621.       8620.       8619.       8618.       8617.       8617.       8616.       8616.       8616.       8615.    
        8615.       8615.       8615.       8615.       8616.       8616.       8616.       8616.       8617.       8617.    
        8617.       8617.     -1000.0     -1000.0     -1000.0     -1000.0     -1000.0     -1000.0     -1000.0     -1000.0    
      -1000.0     -1000.0     -1000.0     -1000.0     -1000.0     -1000.0     -1000.0     -1000.0     -1000.0     -1000.0    
      -1000.0     -1000.0     -1000.0     -1000.0     -1000.0     -1000.0     -1000.0     -1000.0     -1000.0     -1000.0    
      -1000.0     -1000.0     -1000.0     -1000.0     -1000.0    
 242  -1000.0     -1000.0     -1000.0     -1000.0     -1000.0     -1000.0     -1000.0     -1000.0     -1000.0     -1000.0    
      -1000.0     -1000.0     -1000.0     -1000.0     -1000.0     -1000.0     -1000.0     -1000.0     -1000.0     -1000.0    
      -1000.0     -1000.0     -1000.0     -1000.0     -1000.0     -1000.0     -1000.0     -1000.0     -1000.0     -1000.0    
      -1000.0     -1000.0       8809.       8808.       8806.       8803.       8800.       8797.       8793.       8790.    
        8786.       8781.       8777.       8772.       8767.       8762.       8757.       8752.       8746.       8740.    
        8735.       8729.       8723.       8718.       8712.       8707.       8702.       8697.       8693.       8688.    
        8684.       8680.       8676.       8672.       8668.       8665.       8661.       8658.       8655.       8652.    
        8649.       8646.       8643.       8641.       8638.       8636.       8633.       8631.       8629.       8627.    
        8625.       8624.       8622.       8620.       8619.       8617.       8616.       8615.       8614.       8612.    
        8611.       8611.       8610.       8609.       8608.       8608.       8607.       8607.       8607.       8607.    
        8607.       8607.       8607.       8607.       8608.       8608.       8609.       8609.       8610.       8610.    
        8610.       8611.     -1000.0     -1000.0     -1000.0     -1000.0     -1000.0     -1000.0     -1000.0     -1000.0    
      -1000.0     -1000.0     -1000.0     -1000.0     -1000.0     -1000.0     -1000.0     -1000.0     -1000.0     -1000.0    
      -1000.0     -1000.0     -1000.0     -1000.0     -1000.0     -1000.0     -1000.0     -1000.0     -1000.0     -1000.0    
      -1000.0     -1000.0     -1000.0     -1000.0     -1000.0    
 243  -1000.0     -1000.0     -1000.0     -1000.0     -1000.0     -1000.0     -1000.0     -1000.0     -1000.0     -1000.0    
      -1000.0     -1000.0     -1000.0     -1000.0     -1000.0     -1000.0     -1000.0     -1000.0     -1000.0     -1000.0    
      -1000.0     -1000.0     -1000.0     -1000.0     -1000.0     -1000.0     -1000.0     -1000.0     -1000.0     -1000.0    
      -1000.0     -1000.0       8807.       8806.       8804.       8801.       8798.       8795.       8791.       8787.    
        8783.       8778.       8774.       8769.       8764.       8758.       8753.       8747.       8741.       8735.    
        8729.       8723.       8717.       8711.       8705.       8700.       8695.       8690.       8685.       8680.    
        8676.       8671.       8667.       8663.       8660.       8656.       8652.       8649.       8646.       8643.    
        8640.       8637.       8634.       8632.       8629.       8627.       8624.       8622.       8620.       8618.    
        8616.       8614.       8613.       8611.       8610.       8608.       8607.       8606.       8604.       8603.    
        8602.       8601.       8601.       8600.       8599.       8599.       8598.       8598.       8598.       8598.    
        8598.       8598.       8599.       8599.       8600.       8600.       8601.       8602.       8603.       8604.    
        8604.       8604.     -1000.0     -1000.0     -1000.0     -1000.0     -1000.0     -1000.0     -1000.0     -1000.0    
      -1000.0     -1000.0     -1000.0     -1000.0     -1000.0     -1000.0     -1000.0     -1000.0     -1000.0     -1000.0    
      -1000.0     -1000.0     -1000.0     -1000.0     -1000.0     -1000.0     -1000.0     -1000.0     -1000.0     -1000.0    
      -1000.0     -1000.0     -1000.0     -1000.0     -1000.0    
 244  -1000.0     -1000.0     -1000.0     -1000.0     -1000.0     -1000.0     -1000.0     -1000.0     -1000.0     -1000.0    
      -1000.0     -1000.0     -1000.0     -1000.0     -1000.0     -1000.0     -1000.0     -1000.0     -1000.0     -1000.0    
      -1000.0     -1000.0     -1000.0     -1000.0     -1000.0     -1000.0     -1000.0     -1000.0     -1000.0     -1000.0    
      -1000.0     -1000.0     -1000.0       8804.       8802.       8799.       8796.       8793.       8789.       8785.    
        8781.       8776.       8771.       8766.       8760.       8755.       8749.       8743.       8736.       8730.    
        8723.       8717.       8710.       8704.       8698.       8692.       8687.       8682.       8677.       8672.    
        8667.       8663.       8659.       8655.       8651.       8647.       8644.       8640.       8637.       8634.    
        8631.       8628.       8625.       8622.       8620.       8618.       8615.       8613.       8611.       8609.    
        8607.       8605.       8603.       8602.       8600.       8599.       8598.       8596.       8595.       8594.    
        8593.       8592.       8591.       8591.       8590.       8590.       8589.       8589.       8589.       8589.    
        8589.       8590.       8590.       8591.       8592.       8593.       8594.       8595.       8596.       8597.    
        8598.       8599.     -1000.0     -1000.0     -1000.0     -1000.0     -1000.0     -1000.0     -1000.0     -1000.0    
      -1000.0     -1000.0     -1000.0     -1000.0     -1000.0     -1000.0     -1000.0     -1000.0     -1000.0     -1000.0    
      -1000.0     -1000.0     -1000.0     -1000.0     -1000.0     -1000.0     -1000.0     -1000.0     -1000.0     -1000.0    
      -1000.0     -1000.0     -1000.0     -1000.0     -1000.0    
 245  -1000.0     -1000.0     -1000.0     -1000.0     -1000.0     -1000.0     -1000.0     -1000.0     -1000.0     -1000.0    
      -1000.0     -1000.0     -1000.0     -1000.0     -1000.0     -1000.0     -1000.0     -1000.0     -1000.0     -1000.0    
      -1000.0     -1000.0     -1000.0     -1000.0     -1000.0     -1000.0     -1000.0     -1000.0     -1000.0     -1000.0    
      -1000.0     -1000.0     -1000.0     -1000.0     -1000.0       8797.       8795.       8791.       8787.       8783.    
        8778.       8773.       8768.       8763.       8757.       8751.       8745.       8739.       8732.       8725.    
        8717.       8710.       8703.       8697.       8690.       8684.       8679.       8673.       8668.       8663.    
        8659.       8654.       8650.       8646.       8642.       8638.       8634.       8631.       8628.       8625.    
        8622.       8619.       8616.       8613.       8611.       8608.       8606.       8604.       8602.       8600.    
        8598.       8596.       8594.       8592.       8591.       8589.       8588.       8587.       8586.       8585.    
        8584.       8583.       8582.       8581.       8581.       8580.       8580.       8580.       8580.       8580.    
        8580.       8581.       8581.       8582.       8583.       8585.       8586.       8588.       8590.       8591.    
        8592.       8593.     -1000.0     -1000.0     -1000.0     -1000.0     -1000.0     -1000.0     -1000.0     -1000.0    
      -1000.0     -1000.0     -1000.0     -1000.0     -1000.0     -1000.0     -1000.0     -1000.0     -1000.0     -1000.0    
      -1000.0     -1000.0     -1000.0     -1000.0     -1000.0     -1000.0     -1000.0     -1000.0     -1000.0     -1000.0    
      -1000.0     -1000.0     -1000.0     -1000.0     -1000.0    
 246  -1000.0     -1000.0     -1000.0     -1000.0     -1000.0     -1000.0     -1000.0     -1000.0     -1000.0     -1000.0    
      -1000.0     -1000.0     -1000.0     -1000.0     -1000.0     -1000.0     -1000.0     -1000.0     -1000.0     -1000.0    
      -1000.0     -1000.0     -1000.0     -1000.0     -1000.0     -1000.0     -1000.0     -1000.0     -1000.0     -1000.0    
      -1000.0     -1000.0     -1000.0     -1000.0     -1000.0     -1000.0     -1000.0     -1000.0       8784.       8781.    
        8777.       8771.       8766.       8761.       8754.       8748.       8742.       8735.       8727.       8719.    
        8711.       8704.       8696.       8689.       8682.       8676.       8670.       8665.       8659.       8654.    
        8650.       8645.       8641.       8637.       8633.       8629.       8625.       8622.       8618.       8615.    
        8612.       8609.       8606.       8604.       8601.       8599.       8596.       8594.       8592.       8590.    
        8588.       8586.       8585.       8583.       8581.       8580.       8579.       8577.       8576.       8575.    
        8574.       8573.       8572.       8572.       8571.       8571.       8571.       8570.       8570.       8571.    
        8571.       8571.       8572.       8573.       8575.       8576.       8578.       8581.       8583.       8586.    
        8587.       8588.     -1000.0     -1000.0     -1000.0     -1000.0     -1000.0     -1000.0     -1000.0     -1000.0    
      -1000.0     -1000.0     -1000.0     -1000.0     -1000.0     -1000.0     -1000.0     -1000.0     -1000.0     -1000.0    
      -1000.0     -1000.0     -1000.0     -1000.0     -1000.0     -1000.0     -1000.0     -1000.0     -1000.0     -1000.0    
      -1000.0     -1000.0     -1000.0     -1000.0     -1000.0    
 247  -1000.0     -1000.0     -1000.0     -1000.0     -1000.0     -1000.0     -1000.0     -1000.0     -1000.0     -1000.0    
      -1000.0     -1000.0     -1000.0     -1000.0     -1000.0     -1000.0     -1000.0     -1000.0     -1000.0     -1000.0    
      -1000.0     -1000.0     -1000.0     -1000.0     -1000.0     -1000.0     -1000.0     -1000.0     -1000.0     -1000.0    
      -1000.0     -1000.0     -1000.0     -1000.0     -1000.0     -1000.0     -1000.0     -1000.0     -1000.0     -1000.0    
      -1000.0       8768.       8764.       8759.       8752.       8746.       8739.       8731.       8723.       8714.    
        8705.       8697.       8688.       8681.       8674.       8668.       8662.       8656.       8650.       8645.    
        8641.       8636.       8632.       8627.       8623.       8619.       8616.       8612.       8609.       8606.    
        8603.       8600.       8597.       8594.       8592.       8589.       8587.       8585.       8582.       8580.    
        8578.       8577.       8575.       8573.       8572.       8570.       8569.       8568.       8566.       8565.    
        8564.       8564.       8563.       8562.       8562.       8561.       8561.       8561.       8561.       8561.    
        8561.       8562.       8563.       8564.       8566.       8568.       8570.       8574.       8577.       8580.    
        8583.       8584.     -1000.0     -1000.0     -1000.0     -1000.0     -1000.0     -1000.0     -1000.0     -1000.0    
      -1000.0     -1000.0     -1000.0     -1000.0     -1000.0     -1000.0     -1000.0     -1000.0     -1000.0     -1000.0    
      -1000.0     -1000.0     -1000.0     -1000.0     -1000.0     -1000.0     -1000.0     -1000.0     -1000.0     -1000.0    
      -1000.0     -1000.0     -1000.0     -1000.0     -1000.0    
 248  -1000.0     -1000.0     -1000.0     -1000.0     -1000.0     -1000.0     -1000.0     -1000.0     -1000.0     -1000.0    
      -1000.0     -1000.0     -1000.0     -1000.0     -1000.0     -1000.0     -1000.0     -1000.0     -1000.0     -1000.0    
      -1000.0     -1000.0     -1000.0     -1000.0     -1000.0     -1000.0     -1000.0     -1000.0     -1000.0     -1000.0    
      -1000.0     -1000.0     -1000.0     -1000.0     -1000.0     -1000.0     -1000.0     -1000.0     -1000.0     -1000.0    
      -1000.0     -1000.0     -1000.0     -1000.0       8748.       8743.       8737.       8729.       8718.       8709.    
        8700.       8689.       8680.       8672.       8665.       8658.       8652.       8647.       8641.       8636.    
        8631.       8626.       8622.       8618.       8614.       8610.       8606.       8603.       8599.       8596.    
        8593.       8590.       8587.       8584.       8582.       8579.       8577.       8575.       8573.       8571.    
        8569.       8567.       8565.       8563.       8562.       8560.       8559.       8558.       8557.       8556.    
        8555.       8554.       8553.       8552.       8552.       8551.       8551.       8551.       8551.       8551.    
        8552.       8552.       8553.       8555.       8556.       8559.       8562.       8566.       8572.       8576.    
        8579.       8582.     -1000.0     -1000.0     -1000.0     -1000.0     -1000.0     -1000.0     -1000.0     -1000.0    
      -1000.0     -1000.0     -1000.0     -1000.0     -1000.0     -1000.0     -1000.0     -1000.0     -1000.0     -1000.0    
      -1000.0     -1000.0     -1000.0     -1000.0     -1000.0     -1000.0     -1000.0     -1000.0     -1000.0     -1000.0    
      -1000.0     -1000.0     -1000.0     -1000.0     -1000.0    
 249  -1000.0     -1000.0     -1000.0     -1000.0     -1000.0     -1000.0     -1000.0     -1000.0     -1000.0     -1000.0    
      -1000.0     -1000.0     -1000.0     -1000.0     -1000.0     -1000.0     -1000.0     -1000.0     -1000.0     -1000.0    
      -1000.0     -1000.0     -1000.0     -1000.0     -1000.0     -1000.0     -1000.0     -1000.0     -1000.0     -1000.0    
      -1000.0     -1000.0     -1000.0     -1000.0     -1000.0     -1000.0     -1000.0     -1000.0     -1000.0     -1000.0    
      -1000.0     -1000.0     -1000.0     -1000.0     -1000.0     -1000.0     -1000.0     -1000.0       8712.       8705.    
        8695.       8679.       8670.       8662.       8655.       8649.       8643.       8637.       8632.       8626.    
        8621.       8617.       8612.       8608.       8604.       8600.       8596.       8593.       8589.       8586.    
        8583.       8580.       8577.       8575.       8572.       8569.       8567.       8565.       8563.       8561.    
        8559.       8557.       8555.       8553.       8552.       8550.       8549.       8548.       8547.       8546.    
        8545.       8544.       8543.       8542.       8542.       8541.       8541.       8541.       8541.       8541.    
        8542.       8542.       8543.       8545.       8547.       8549.       8552.       8557.       8567.       8573.    
        8576.     -1000.0     -1000.0     -1000.0     -1000.0     -1000.0     -1000.0     -1000.0     -1000.0     -1000.0    
      -1000.0     -1000.0     -1000.0     -1000.0     -1000.0     -1000.0     -1000.0     -1000.0     -1000.0     -1000.0    
      -1000.0     -1000.0     -1000.0     -1000.0     -1000.0     -1000.0     -1000.0     -1000.0     -1000.0     -1000.0    
      -1000.0     -1000.0     -1000.0     -1000.0     -1000.0    
 250  -1000.0     -1000.0     -1000.0     -1000.0     -1000.0     -1000.0     -1000.0     -1000.0     -1000.0     -1000.0    
      -1000.0     -1000.0     -1000.0     -1000.0     -1000.0     -1000.0     -1000.0     -1000.0     -1000.0     -1000.0    
      -1000.0     -1000.0     -1000.0     -1000.0     -1000.0     -1000.0     -1000.0     -1000.0     -1000.0     -1000.0    
      -1000.0     -1000.0     -1000.0     -1000.0     -1000.0     -1000.0     -1000.0     -1000.0     -1000.0     -1000.0    
      -1000.0     -1000.0     -1000.0     -1000.0     -1000.0     -1000.0     -1000.0     -1000.0     -1000.0     -1000.0    
      -1000.0       8664.       8659.       8652.       8645.       8639.       8633.       8627.       8622.       8616.    
        8611.       8607.       8602.       8598.       8594.       8590.       8586.       8583.       8579.       8576.    
        8573.       8570.       8567.       8565.       8562.       8559.       8557.       8555.       8553.       8551.    
        8549.       8547.       8545.       8543.       8542.       8540.       8539.       8538.       8537.       8535.    
        8535.       8534.       8533.       8532.       8532.       8531.       8531.       8531.       8531.       8531.    
        8531.       8532.       8533.       8534.       8536.       8538.       8541.       8543.     -1000.0     -1000.0    
      -1000.0     -1000.0     -1000.0     -1000.0     -1000.0     -1000.0     -1000.0     -1000.0     -1000.0     -1000.0    
      -1000.0     -1000.0     -1000.0     -1000.0     -1000.0     -1000.0     -1000.0     -1000.0     -1000.0     -1000.0    
      -1000.0     -1000.0     -1000.0     -1000.0     -1000.0     -1000.0     -1000.0     -1000.0     -1000.0     -1000.0    
      -1000.0     -1000.0     -1000.0     -1000.0     -1000.0    

 HEAD WILL BE SAVED ON UNIT   51 AT END OF TIME STEP    1, STRESS PERIOD    1
1
  VOLUMETRIC BUDGET FOR ENTIRE MODEL AT END OF TIME STEP    1, STRESS PERIOD   1
  ------------------------------------------------------------------------------

     CUMULATIVE VOLUMES      L**3       RATES FOR THIS TIME STEP      L**3/T
     ------------------                 ------------------------

           IN:                                      IN:
           ---                                      ---
             STORAGE =           0.0000               STORAGE =           0.0000
       CONSTANT HEAD =           0.0000         CONSTANT HEAD =           0.0000
     HEAD DEP BOUNDS =           0.0000       HEAD DEP BOUNDS =           0.0000
            RECHARGE =    42640000.0000              RECHARGE =    42640000.0000

            TOTAL IN =    42640000.0000              TOTAL IN =    42640000.0000

          OUT:                                     OUT:
          ----                                     ----
             STORAGE =           0.0000               STORAGE =           0.0000
       CONSTANT HEAD =           0.0000         CONSTANT HEAD =           0.0000
     HEAD DEP BOUNDS =    42638844.0000       HEAD DEP BOUNDS =    42638844.0000
            RECHARGE =           0.0000              RECHARGE =           0.0000

           TOTAL OUT =    42638844.0000             TOTAL OUT =    42638844.0000

            IN - OUT =        1156.0000              IN - OUT =        1156.0000

 PERCENT DISCREPANCY =           0.00     PERCENT DISCREPANCY =           0.00






         TIME SUMMARY AT END OF TIME STEP    1 IN STRESS PERIOD    1
                    SECONDS     MINUTES      HOURS       DAYS        YEARS
                    -----------------------------------------------------------
   TIME STEP LENGTH 3.15576E+07 5.25960E+05  8766.0      365.25      1.0000    
 STRESS PERIOD TIME 3.15576E+07 5.25960E+05  8766.0      365.25      1.0000    
         TOTAL TIME 3.15576E+07 5.25960E+05  8766.0      365.25      1.0000    
1
 FAILURE TO MEET SOLVER CONVERGENCE CRITERIA
 BUDGET PERCENT DISCREPANCY IS    0.0027
 STOPPING SIMULATION

 Run end date and time (yyyy/mm/dd hh:mm:ss): 2022/02/28  8:55:51
 Elapsed run time:  1.702 Seconds

