                                  MODFLOW-2005     
      U.S. GEOLOGICAL SURVEY MODULAR FINITE-DIFFERENCE GROUND-WATER FLOW MODEL
                            VERSION 1.12.00 2/3/2017

 LIST FILE: ocotillo.list
                         UNIT    2

 OPENING ocotillo.dis
 FILE TYPE:DIS   UNIT   11   STATUS:OLD    
 FORMAT:FORMATTED              ACCESS:SEQUENTIAL          

 OPENING ocotillo.bas
 FILE TYPE:BAS6   UNIT   13   STATUS:OLD    
 FORMAT:FORMATTED              ACCESS:SEQUENTIAL          

 OPENING ocotillo.lpf
 FILE TYPE:LPF   UNIT   15   STATUS:OLD    
 FORMAT:FORMATTED              ACCESS:SEQUENTIAL          

 OPENING ocotillo.oc
 FILE TYPE:OC   UNIT   14   STATUS:OLD    
 FORMAT:FORMATTED              ACCESS:SEQUENTIAL          

 OPENING ocotillo.pcg
 FILE TYPE:PCG   UNIT   27   STATUS:OLD    
 FORMAT:FORMATTED              ACCESS:SEQUENTIAL          

 OPENING ocotillo.rch
 FILE TYPE:RCH   UNIT   19   STATUS:OLD    
 FORMAT:FORMATTED              ACCESS:SEQUENTIAL          

 OPENING ocotillo.ghb
 FILE TYPE:GHB   UNIT   23   STATUS:OLD    
 FORMAT:FORMATTED              ACCESS:SEQUENTIAL          

 OPENING ocotillo.cbc
 FILE TYPE:DATA(BINARY)   UNIT   53   STATUS:REPLACE
 FORMAT:BINARY                 ACCESS:SEQUENTIAL          

 OPENING ocotillo.hds
 FILE TYPE:DATA(BINARY)   UNIT   51   STATUS:REPLACE
 FORMAT:BINARY                 ACCESS:SEQUENTIAL          

 BAS -- BASIC PACKAGE, VERSION 7, 5/2/2005 INPUT READ FROM UNIT   13
 
 MODFLOW was compiled using mixed precision
 Precision of REAL variables:           6
 Precision of DOUBLE PRECISION variables:          15

 DISCRETIZATION INPUT DATA READ FROM UNIT   11
 # DIS package for  MODFLOW-2005, generated by Flopy.
    2 LAYERS       250 ROWS       145 COLUMNS
    1 STRESS PERIOD(S) IN SIMULATION
 MODEL TIME UNIT IS YEARS
 MODEL LENGTH UNIT IS METERS
  Confining bed flag for each layer:
   0   0

                     DELR =   1000.00    

                     DELC =   1000.00    



           TOP ELEVATION OF LAYER 1
 READING ON UNIT   11 WITH FORMAT: (145E15.6)          



             MODEL LAYER BOTTOM EL. FOR LAYER   1
 READING ON UNIT   11 WITH FORMAT: (145E15.6)          



             MODEL LAYER BOTTOM EL. FOR LAYER   2
 READING ON UNIT   11 WITH FORMAT: (145E15.6)          


 STRESS PERIOD     LENGTH       TIME STEPS     MULTIPLIER FOR DELT    SS FLAG
 ----------------------------------------------------------------------------
        1         1.000000          1                    1.000         SS

 STEADY-STATE SIMULATION



 
 # BAS6 package for  MODFLOW-2005, generated by Flopy.                           
 THE FREE FORMAT OPTION HAS BEEN SELECTED



                     BOUNDARY ARRAY FOR LAYER   1
 READING ON UNIT   13 WITH FORMAT: (145I10)            



                     BOUNDARY ARRAY FOR LAYER   2
 READING ON UNIT   13 WITH FORMAT: (145I10)            

 AQUIFER HEAD WILL BE SET TO  -999.99     AT ALL NO-FLOW NODES (IBOUND=0).



                       INITIAL HEAD FOR LAYER   1
 READING ON UNIT   13 WITH FORMAT: (145E15.6)          



                       INITIAL HEAD FOR LAYER   2
 READING ON UNIT   13 WITH FORMAT: (145E15.6)          
 # OC package for  MODFLOW-2005, generated by Flopy.

 OUTPUT CONTROL IS SPECIFIED ONLY AT TIME STEPS FOR WHICH OUTPUT IS DESIRED
 COMPACT CELL-BY-CELL BUDGET FILES WILL BE WRITTEN
 AUXILIARY DATA WILL BE SAVED IN CELL-BY-CELL BUDGET FILES
 HEAD PRINT FORMAT CODE IS   0    DRAWDOWN PRINT FORMAT CODE IS   0
 HEADS WILL BE SAVED ON UNIT   51    DRAWDOWNS WILL BE SAVED ON UNIT    0

 LPF -- LAYER-PROPERTY FLOW PACKAGE, VERSION 7, 5/2/2005
         INPUT READ FROM UNIT   15
 # LPF package for  MODFLOW-2005, generated by Flopy.
 CELL-BY-CELL FLOWS WILL BE SAVED ON UNIT   53
 HEAD AT CELLS THAT CONVERT TO DRY= -1.00000E+30
 No named parameters

   LAYER FLAGS:
 LAYER       LAYTYP        LAYAVG         CHANI        LAYVKA        LAYWET
 ---------------------------------------------------------------------------
    1             1             0     0.000E+00             0             0
    2             1             0     0.000E+00             0             0

   INTERPRETATION OF LAYER FLAGS:
                        INTERBLOCK     HORIZONTAL    DATA IN
         LAYER TYPE   TRANSMISSIVITY   ANISOTROPY   ARRAY VKA   WETTABILITY
 LAYER      (LAYTYP)      (LAYAVG)       (CHANI)      (LAYVKA)      (LAYWET)
 ---------------------------------------------------------------------------
    1   CONVERTIBLE      HARMONIC      VARIABLE    VERTICAL K  NON-WETTABLE
    2   CONVERTIBLE      HARMONIC      VARIABLE    VERTICAL K  NON-WETTABLE

 WETTING CAPABILITY IS NOT ACTIVE IN ANY LAYER



              HYD. COND. ALONG ROWS FOR LAYER   1
 READING ON UNIT   15 WITH FORMAT: (145E15.6)          

   HORIZ. ANI. (COL./ROW) =   1.00000     FOR LAYER   1



                VERTICAL HYD. COND. FOR LAYER   1
 READING ON UNIT   15 WITH FORMAT: (145E15.6)          



              HYD. COND. ALONG ROWS FOR LAYER   2
 READING ON UNIT   15 WITH FORMAT: (145E15.6)          

   HORIZ. ANI. (COL./ROW) =   1.00000     FOR LAYER   2



                VERTICAL HYD. COND. FOR LAYER   2
 READING ON UNIT   15 WITH FORMAT: (145E15.6)          

 GHB -- GENERAL-HEAD BOUNDARY PACKAGE, VERSION 7, 5/2/2005
         INPUT READ FROM UNIT   23
 # GHB package for  MODFLOW-2005, generated by Flopy.
 No named parameters
 MAXIMUM OF    114 ACTIVE GHB CELLS AT ONE TIME


     0 GHB parameters

 RCH -- RECHARGE PACKAGE, VERSION 7, 5/2/2005 INPUT READ FROM UNIT   19
 # RCH package for  MODFLOW-2005, generated by Flopy.
 No named parameters
 OPTION 3 -- RECHARGE TO HIGHEST ACTIVE NODE IN EACH VERTICAL COLUMN


     0 Recharge parameters

 PCG -- CONJUGATE-GRADIENT SOLUTION PACKAGE, VERSION 7, 5/2/2005
 # PCG package for  MODFLOW-2005, generated by Flopy.
 MAXIMUM OF     50 CALLS OF SOLUTION ROUTINE
 MAXIMUM OF     40 INTERNAL ITERATIONS PER CALL TO SOLUTION ROUTINE
 MATRIX PRECONDITIONING TYPE :    1



                                    SOLUTION BY THE CONJUGATE-GRADIENT METHOD
                                   -------------------------------------------
                    MAXIMUM NUMBER OF CALLS TO PCG ROUTINE =       50
                        MAXIMUM ITERATIONS PER CALL TO PCG =       40
                               MATRIX PRECONDITIONING TYPE =        1
        RELAXATION FACTOR (ONLY USED WITH PRECOND. TYPE 1) =    0.10000E+01
 PARAMETER OF POLYNOMIAL PRECOND. = 2 (2) OR IS CALCULATED :        0
                         HEAD CHANGE CRITERION FOR CLOSURE =    0.10000E-02
                     RESIDUAL CHANGE CRITERION FOR CLOSURE =    0.10000E-04
            PCG HEAD AND RESIDUAL CHANGE PRINTOUT INTERVAL =      999
     PRINTING FROM SOLVER IS LIMITED(1) OR SUPPRESSED (>1) =        3
                            STEADY-STATE DAMPING PARAMETER =    0.50000E+00
                               TRANSIENT DAMPING PARAMETER =    0.50000E+00
1
                            STRESS PERIOD NO.    1, LENGTH =   1.000000    
                            -----------------------------------------------

                              NUMBER OF TIME STEPS =     1

                               MULTIPLIER FOR DELT =     1.000

                            INITIAL TIME STEP SIZE =   1.000000    

 BOUND. NO. LAYER   ROW   COL     STAGE      CONDUCTANCE         
 ----------------------------------------------------------------
      1      1    250     52       1435.          0.1000    
      2      2    250     52       1410.          0.1000    
      3      1    250     53       1435.          0.1000    
      4      2    250     53       1410.          0.1000    
      5      1    250     54       1435.          0.1000    
      6      2    250     54       1410.          0.1000    
      7      1    250     55       1435.          0.1000    
      8      2    250     55       1410.          0.1000    
      9      1    250     56       1435.          0.1000    
     10      2    250     56       1410.          0.1000    
     11      1    250     57       1435.          0.1000    
     12      2    250     57       1410.          0.1000    
     13      1    250     58       1435.          0.1000    
     14      2    250     58       1410.          0.1000    
     15      1    250     59       1435.          0.1000    
     16      2    250     59       1410.          0.1000    
     17      1    250     60       1435.          0.1000    
     18      2    250     60       1410.          0.1000    
     19      1    250     61       1435.          0.1000    
     20      2    250     61       1410.          0.1000    
     21      1    250     62       1435.          0.1000    
     22      2    250     62       1410.          0.1000    
     23      1    250     63       1435.          0.1000    
     24      2    250     63       1410.          0.1000    
     25      1    250     64       1435.          0.1000    
     26      2    250     64       1410.          0.1000    
     27      1    250     65       1435.          0.1000    
     28      2    250     65       1410.          0.1000    
     29      1    250     66       1435.          0.1000    
     30      2    250     66       1410.          0.1000    
     31      1    250     67       1435.          0.1000    
     32      2    250     67       1410.          0.1000    
     33      1    250     68       1435.          0.1000    
     34      2    250     68       1410.          0.1000    
     35      1    250     69       1435.          0.1000    
     36      2    250     69       1410.          0.1000    
     37      1    250     70       1435.          0.1000    
     38      2    250     70       1410.          0.1000    
     39      1    250     71       1435.          0.1000    
     40      2    250     71       1410.          0.1000    
     41      1    250     72       1435.          0.1000    
     42      2    250     72       1410.          0.1000    
     43      1    250     73       1435.          0.1000    
     44      2    250     73       1410.          0.1000    
     45      1    250     74       1435.          0.1000    
     46      2    250     74       1410.          0.1000    
     47      1    250     75       1435.          0.1000    
     48      2    250     75       1410.          0.1000    
     49      1    250     76       1435.          0.1000    
     50      2    250     76       1410.          0.1000    
     51      1    250     77       1435.          0.1000    
     52      2    250     77       1410.          0.1000    
     53      1    250     78       1435.          0.1000    
     54      2    250     78       1410.          0.1000    
     55      1    250     79       1435.          0.1000    
     56      2    250     79       1410.          0.1000    
     57      1    250     80       1435.          0.1000    
     58      2    250     80       1410.          0.1000    
     59      1    250     81       1435.          0.1000    
     60      2    250     81       1410.          0.1000    
     61      1    250     82       1435.          0.1000    
     62      2    250     82       1410.          0.1000    
     63      1    250     83       1435.          0.1000    
     64      2    250     83       1410.          0.1000    
     65      1    250     84       1435.          0.1000    
     66      2    250     84       1410.          0.1000    
     67      1    250     85       1435.          0.1000    
     68      2    250     85       1410.          0.1000    
     69      1    250     86       1435.          0.1000    
     70      2    250     86       1410.          0.1000    
     71      1    250     87       1435.          0.1000    
     72      2    250     87       1410.          0.1000    
     73      1    250     88       1435.          0.1000    
     74      2    250     88       1410.          0.1000    
     75      1    250     89       1435.          0.1000    
     76      2    250     89       1410.          0.1000    
     77      1    250     90       1435.          0.1000    
     78      2    250     90       1410.          0.1000    
     79      1    250     91       1435.          0.1000    
     80      2    250     91       1410.          0.1000    
     81      1    250     92       1435.          0.1000    
     82      2    250     92       1410.          0.1000    
     83      1    250     93       1435.          0.1000    
     84      2    250     93       1410.          0.1000    
     85      1    250     94       1435.          0.1000    
     86      2    250     94       1410.          0.1000    
     87      1    250     95       1435.          0.1000    
     88      2    250     95       1410.          0.1000    
     89      1    250     96       1435.          0.1000    
     90      2    250     96       1410.          0.1000    
     91      1    250     97       1435.          0.1000    
     92      2    250     97       1410.          0.1000    
     93      1    250     98       1435.          0.1000    
     94      2    250     98       1410.          0.1000    
     95      1    250     99       1435.          0.1000    
     96      2    250     99       1410.          0.1000    
     97      1    250    100       1435.          0.1000    
     98      2    250    100       1410.          0.1000    
     99      1    250    101       1435.          0.1000    
    100      2    250    101       1410.          0.1000    
    101      1    250    102       1435.          0.1000    
    102      2    250    102       1410.          0.1000    
    103      1    250    103       1435.          0.1000    
    104      2    250    103       1410.          0.1000    
    105      1    250    104       1435.          0.1000    
    106      2    250    104       1410.          0.1000    
    107      1    250    105       1435.          0.1000    
    108      2    250    105       1410.          0.1000    
    109      1    250    106       1435.          0.1000    
    110      2    250    106       1410.          0.1000    
    111      1    250    107       1435.          0.1000    
    112      2    250    107       1410.          0.1000    
    113      1    250    108       1435.          0.1000    
    114      2    250    108       1410.          0.1000    

    114 GHB CELLS



                           RECHARGE
 READING ON UNIT   19 WITH FORMAT: (145E15.6)          
 
 SOLVING FOR HEAD 

 CELL CONVERSIONS FOR ITER.=  1  LAYER=  1  STEP=  1  PERIOD=   1   (ROW,COL)
    DRY( 55,104)   DRY( 55,105)   DRY( 55,106)   DRY( 56,103)   DRY( 56,104)   
    DRY( 56,105)   DRY( 56,106)   DRY( 57,103)   DRY( 57,104)   DRY( 57,105)   
    DRY( 57,106)   DRY( 58,102)   DRY( 58,103)   DRY( 58,104)   DRY( 58,105)   
    DRY( 59,102)   DRY( 59,103)   DRY( 59,104)   DRY( 59,105)   DRY( 60,102)   
    DRY( 60,103)   DRY( 60,104)   DRY( 60,105)   DRY( 61,101)   DRY( 61,102)   
    DRY( 61,103)   DRY( 61,104)   DRY( 61,105)   DRY( 62,101)   DRY( 62,102)   
    DRY( 62,103)   DRY( 62,104)   DRY( 62,105)   DRY( 63,100)   DRY( 63,101)   
    DRY( 63,102)   DRY( 63,103)   DRY( 63,104)   DRY( 63,105)   DRY( 64, 99)   
    DRY( 64,100)   DRY( 64,101)   DRY( 64,102)   DRY( 64,103)   DRY( 64,104)   
    DRY( 64,105)   DRY( 65, 98)   DRY( 65, 99)   DRY( 65,100)   DRY( 65,101)   
    DRY( 65,102)   DRY( 65,103)   DRY( 65,104)   DRY( 65,105)   DRY( 66, 98)   
    DRY( 66, 99)   DRY( 66,100)   DRY( 66,101)   DRY( 66,102)   DRY( 66,103)   
    DRY( 66,104)   DRY( 66,105)   DRY( 67, 97)   DRY( 67, 98)   DRY( 67, 99)   
    DRY( 67,100)   DRY( 67,101)   DRY( 67,102)   DRY( 67,103)   DRY( 67,104)   
    DRY( 68, 97)   DRY( 68, 98)   DRY( 68, 99)   DRY( 68,100)   DRY( 68,101)   
    DRY( 68,102)   DRY( 68,103)   DRY( 68,104)   DRY( 69, 97)   DRY( 69, 98)   
    DRY( 69, 99)   DRY( 69,100)   DRY( 69,101)   DRY( 69,102)   DRY( 69,103)   
    DRY( 69,104)   DRY( 70, 97)   DRY( 70, 98)   DRY( 70, 99)   DRY( 70,100)   
    DRY( 70,101)   DRY( 70,102)   DRY( 70,103)   DRY( 70,104)   DRY( 71, 97)   
    DRY( 71, 98)   DRY( 71, 99)   DRY( 71,100)   DRY( 71,101)   DRY( 71,102)   
    DRY( 71,103)   DRY( 71,104)   DRY( 72, 98)   DRY( 72, 99)   DRY( 72,100)   
    DRY( 72,101)   DRY( 72,102)   DRY( 72,103)   DRY( 72,104)   DRY( 73, 99)   
    DRY( 73,100)   DRY( 73,101)   DRY( 73,102)   DRY( 73,103)   DRY( 73,104)   
    DRY( 73,105)   DRY( 74,100)   DRY( 74,101)   DRY( 74,102)   DRY( 74,103)   
    DRY( 74,104)   DRY( 74,105)   DRY( 75,101)   DRY( 75,102)   DRY( 75,103)   
    DRY( 75,104)   DRY( 75,105)   DRY( 76,102)   DRY( 76,103)   DRY( 76,104)   
    DRY( 76,105)   DRY( 77,103)   DRY( 77,104)   DRY( 77,105)   DRY( 77,106)   
    DRY( 78,103)   DRY( 78,104)   DRY( 78,105)   DRY( 78,106)   DRY( 79,103)   
    DRY( 79,104)   DRY( 79,105)   DRY( 79,106)   DRY( 80,103)   DRY( 80,104)   
    DRY( 80,105)   DRY( 80,106)   DRY( 81,102)   DRY( 81,103)   DRY( 81,104)   
    DRY( 81,105)   DRY( 81,106)   DRY( 81,107)   DRY( 82,101)   DRY( 82,102)   
    DRY( 82,103)   DRY( 82,104)   DRY( 82,105)   DRY( 82,106)   DRY( 82,107)   
    DRY( 83,100)   DRY( 83,101)   DRY( 83,102)   DRY( 83,103)   DRY( 83,104)   
    DRY( 83,105)   DRY( 83,106)   DRY( 83,107)   DRY( 84, 98)   DRY( 84, 99)   
    DRY( 84,100)   DRY( 84,101)   DRY( 84,102)   DRY( 84,103)   DRY( 84,104)   
    DRY( 84,105)   DRY( 84,106)   DRY( 84,107)   DRY( 84,108)   DRY( 85, 97)   
    DRY( 85, 98)   DRY( 85, 99)   DRY( 85,100)   DRY( 85,101)   DRY( 85,102)   
    DRY( 85,103)   DRY( 85,104)   DRY( 85,105)   DRY( 85,106)   DRY( 85,107)   
    DRY( 85,108)   DRY( 86, 96)   DRY( 86, 97)   DRY( 86, 98)   DRY( 86, 99)   
    DRY( 86,100)   DRY( 86,101)   DRY( 86,102)   DRY( 86,103)   DRY( 86,104)   
    DRY( 86,105)   DRY( 86,106)   DRY( 86,107)   DRY( 86,108)   DRY( 87, 96)   
    DRY( 87, 97)   DRY( 87, 98)   DRY( 87, 99)   DRY( 87,100)   DRY( 87,101)   
    DRY( 87,102)   DRY( 87,103)   DRY( 87,104)   DRY( 87,105)   DRY( 87,106)   
    DRY( 87,107)   DRY( 87,108)   DRY( 87,109)   DRY( 88, 96)   DRY( 88, 97)   
    DRY( 88, 98)   DRY( 88, 99)   DRY( 88,100)   DRY( 88,101)   DRY( 88,102)   
    DRY( 88,103)   DRY( 88,104)   DRY( 88,105)   DRY( 88,106)   DRY( 88,107)   
    DRY( 88,108)   DRY( 88,109)   DRY( 89, 96)   DRY( 89, 97)   DRY( 89, 98)   
    DRY( 89, 99)   DRY( 89,100)   DRY( 89,101)   DRY( 89,102)   DRY( 89,103)   
    DRY( 89,104)   DRY( 89,105)   DRY( 89,106)   DRY( 89,107)   DRY( 89,108)   
    DRY( 89,109)   DRY( 90, 96)   DRY( 90, 97)   DRY( 90, 98)   DRY( 90, 99)   
    DRY( 90,100)   DRY( 90,101)   DRY( 90,102)   DRY( 90,103)   DRY( 90,104)   
    DRY( 90,105)   DRY( 90,106)   DRY( 90,107)   DRY( 90,108)   DRY( 90,109)   
    DRY( 90,110)   DRY( 91, 96)   DRY( 91, 97)   DRY( 91, 98)   DRY( 91, 99)   
    DRY( 91,100)   DRY( 91,101)   DRY( 91,102)   DRY( 91,103)   DRY( 91,104)   
    DRY( 91,105)   DRY( 91,106)   DRY( 91,107)   DRY( 91,108)   DRY( 91,109)   
    DRY( 91,110)   DRY( 92, 95)   DRY( 92, 96)   DRY( 92, 97)   DRY( 92, 98)   
    DRY( 92, 99)   DRY( 92,100)   DRY( 92,101)   DRY( 92,102)   DRY( 92,103)   
    DRY( 92,104)   DRY( 92,105)   DRY( 92,106)   DRY( 92,107)   DRY( 92,108)   
    DRY( 92,109)   DRY( 92,110)   DRY( 93, 94)   DRY( 93, 95)   DRY( 93, 96)   
    DRY( 93, 97)   DRY( 93, 98)   DRY( 93, 99)   DRY( 93,100)   DRY( 93,101)   
    DRY( 93,102)   DRY( 93,103)   DRY( 93,104)   DRY( 93,105)   DRY( 93,106)   
    DRY( 93,107)   DRY( 93,108)   DRY( 94, 94)   DRY( 94, 95)   DRY( 94, 96)   
    DRY( 94, 97)   DRY( 94, 98)   DRY( 94, 99)   DRY( 94,100)   DRY( 94,101)   
    DRY( 94,102)   DRY( 94,103)   DRY( 94,104)   DRY( 94,105)   DRY( 94,106)   
    DRY( 94,107)   DRY( 95, 94)   DRY( 95, 95)   DRY( 95, 96)   DRY( 95, 97)   
    DRY( 95, 98)   DRY( 95, 99)   DRY( 95,100)   DRY( 95,101)   DRY( 95,102)   
    DRY( 95,103)   DRY( 95,104)   DRY( 95,105)   DRY( 95,106)   DRY( 96, 95)   
    DRY( 96, 96)   DRY( 96, 97)   DRY( 96, 98)   DRY( 96, 99)   DRY( 96,100)   
    DRY( 96,101)   DRY( 96,102)   DRY( 96,103)   DRY( 96,104)   DRY( 96,105)   
    DRY( 97, 95)   DRY( 97, 96)   DRY( 97, 97)   DRY( 97, 98)   DRY( 97, 99)   
    DRY( 97,100)   DRY( 97,101)   DRY( 97,102)   DRY( 97,103)   DRY( 97,104)   
    DRY( 98, 96)   DRY( 98, 97)   DRY( 98, 98)   DRY( 98, 99)   DRY( 98,100)   
    DRY( 98,101)   DRY( 98,102)   DRY( 98,103)   DRY( 99, 96)   DRY( 99, 97)   
    DRY( 99, 98)   DRY( 99, 99)   DRY( 99,100)   DRY( 99,101)   DRY( 99,102)   
    DRY(100, 96)   DRY(100, 97)   DRY(100, 98)   DRY(100, 99)   DRY(100,100)   
    DRY(100,101)   DRY(101, 95)   DRY(101, 96)   DRY(101, 97)   DRY(101, 98)   
    DRY(101, 99)   DRY(101,100)   DRY(102, 95)   DRY(102, 96)   DRY(102, 97)   
    DRY(102, 98)   DRY(102, 99)   DRY(102,100)   DRY(102,101)   DRY(103, 94)   
    DRY(103, 95)   DRY(103, 96)   DRY(103, 97)   DRY(103, 98)   DRY(103, 99)   
    DRY(103,100)   DRY(103,101)   DRY(103,102)   DRY(104, 93)   DRY(104, 94)   
    DRY(104, 95)   DRY(104, 96)   DRY(104, 97)   DRY(104, 98)   DRY(104, 99)   
    DRY(104,100)   DRY(104,101)   DRY(104,102)   DRY(104,103)   DRY(105, 93)   
    DRY(105, 94)   DRY(105, 95)   DRY(105, 96)   DRY(105, 97)   DRY(105, 98)   
    DRY(105, 99)   DRY(105,100)   DRY(105,101)   DRY(105,102)   DRY(105,103)   
    DRY(105,104)   DRY(106, 93)   DRY(106, 94)   DRY(106, 95)   DRY(106, 96)   
    DRY(106, 97)   DRY(106, 98)   DRY(106, 99)   DRY(106,100)   DRY(106,101)   
    DRY(106,102)   DRY(106,103)   DRY(106,104)   DRY(106,105)   DRY(107, 93)   
    DRY(107, 94)   DRY(107, 95)   DRY(107, 96)   DRY(107, 97)   DRY(107, 98)   
    DRY(107, 99)   DRY(107,100)   DRY(107,101)   DRY(107,102)   DRY(107,103)   
    DRY(107,104)   DRY(107,105)   DRY(107,106)   DRY(108, 93)   DRY(108, 94)   
    DRY(108, 95)   DRY(108, 96)   DRY(108, 97)   DRY(108, 98)   DRY(108, 99)   
    DRY(108,100)   DRY(108,101)   DRY(108,102)   DRY(108,103)   DRY(108,104)   
    DRY(108,105)   DRY(108,106)   DRY(108,107)   DRY(109, 94)   DRY(109, 95)   
    DRY(109, 96)   DRY(109, 97)   DRY(109, 98)   DRY(109, 99)   DRY(109,100)   
    DRY(109,101)   DRY(109,102)   DRY(109,103)   DRY(109,104)   DRY(109,105)   
    DRY(109,106)   DRY(109,107)   DRY(109,108)   DRY(110, 94)   DRY(110, 95)   
    DRY(110, 96)   DRY(110, 97)   DRY(110, 98)   DRY(110, 99)   DRY(110,100)   
    DRY(110,101)   DRY(110,102)   DRY(110,103)   DRY(110,104)   DRY(110,105)   
    DRY(110,106)   DRY(110,107)   DRY(110,108)   DRY(110,109)   DRY(111, 95)   
    DRY(111, 96)   DRY(111, 97)   DRY(111, 98)   DRY(111, 99)   DRY(111,100)   
    DRY(111,101)   DRY(111,102)   DRY(111,103)   DRY(111,104)   DRY(111,105)   
    DRY(111,106)   DRY(111,107)   DRY(111,108)   DRY(111,109)   DRY(111,110)   
    DRY(112, 95)   DRY(112, 96)   DRY(112, 97)   DRY(112, 98)   DRY(112, 99)   
    DRY(112,100)   DRY(112,101)   DRY(112,102)   DRY(112,103)   DRY(112,104)   
    DRY(112,105)   DRY(112,106)   DRY(112,107)   DRY(112,108)   DRY(112,109)   
    DRY(112,110)   DRY(113, 95)   DRY(113, 96)   DRY(113, 97)   DRY(113, 98)   
    DRY(113, 99)   DRY(113,100)   DRY(113,101)   DRY(113,102)   DRY(113,103)   
    DRY(113,104)   DRY(113,105)   DRY(113,106)   DRY(113,107)   DRY(113,108)   
    DRY(113,109)   DRY(113,110)   DRY(114, 96)   DRY(114, 97)   DRY(114, 98)   
    DRY(114, 99)   DRY(114,100)   DRY(114,101)   DRY(114,102)   DRY(114,103)   
    DRY(114,104)   DRY(114,105)   DRY(114,106)   DRY(114,107)   DRY(114,108)   
    DRY(114,109)   DRY(114,110)   DRY(114,111)   DRY(115, 96)   DRY(115, 97)   
    DRY(115, 98)   DRY(115, 99)   DRY(115,100)   DRY(115,101)   DRY(115,102)   
    DRY(115,103)   DRY(115,104)   DRY(115,105)   DRY(115,106)   DRY(115,107)   
    DRY(115,108)   DRY(115,109)   DRY(115,110)   DRY(115,111)   DRY(116, 96)   
    DRY(116, 97)   DRY(116, 98)   DRY(116, 99)   DRY(116,100)   DRY(116,101)   
    DRY(116,102)   DRY(116,103)   DRY(116,104)   DRY(116,105)   DRY(116,106)   
    DRY(116,107)   DRY(116,108)   DRY(116,109)   DRY(116,110)   DRY(116,111)   
    DRY(117, 96)   DRY(117, 97)   DRY(117, 98)   DRY(117, 99)   DRY(117,100)   
    DRY(117,101)   DRY(117,102)   DRY(117,103)   DRY(117,104)   DRY(117,105)   
    DRY(117,106)   DRY(117,107)   DRY(117,108)   DRY(117,109)   DRY(117,110)   
    DRY(117,111)   DRY(118, 96)   DRY(118, 97)   DRY(118, 98)   DRY(118, 99)   
    DRY(118,100)   DRY(118,101)   DRY(118,102)   DRY(118,103)   DRY(118,104)   
    DRY(118,105)   DRY(118,106)   DRY(118,107)   DRY(118,108)   DRY(118,109)   
    DRY(118,110)   DRY(118,111)   DRY(118,112)   DRY(119, 96)   DRY(119, 97)   
    DRY(119, 98)   DRY(119, 99)   DRY(119,100)   DRY(119,101)   DRY(119,102)   
    DRY(119,103)   DRY(119,104)   DRY(119,105)   DRY(119,106)   DRY(119,107)   
    DRY(119,108)   DRY(119,109)   DRY(119,110)   DRY(119,111)   DRY(119,112)   
    DRY(120, 96)   DRY(120, 97)   DRY(120, 98)   DRY(120, 99)   DRY(120,100)   
    DRY(120,101)   DRY(120,102)   DRY(120,103)   DRY(120,104)   DRY(120,105)   
    DRY(120,106)   DRY(120,107)   DRY(120,108)   DRY(120,109)   DRY(120,110)   
    DRY(120,111)   DRY(120,112)   DRY(121, 96)   DRY(121, 97)   DRY(121, 98)   
    DRY(121, 99)   DRY(121,100)   DRY(121,101)   DRY(121,102)   DRY(121,103)   
    DRY(121,104)   DRY(121,105)   DRY(121,106)   DRY(121,107)   DRY(121,108)   
    DRY(121,109)   DRY(121,110)   DRY(121,111)   DRY(121,112)   DRY(122, 96)   
    DRY(122, 97)   DRY(122, 98)   DRY(122, 99)   DRY(122,100)   DRY(122,101)   
    DRY(122,102)   DRY(122,103)   DRY(122,104)   DRY(122,105)   DRY(122,106)   
    DRY(122,107)   DRY(122,108)   DRY(122,109)   DRY(122,110)   DRY(122,111)   
    DRY(123, 96)   DRY(123, 97)   DRY(123, 98)   DRY(123, 99)   DRY(123,100)   
    DRY(123,101)   DRY(123,102)   DRY(123,103)   DRY(123,104)   DRY(123,105)   
    DRY(123,106)   DRY(123,107)   DRY(123,108)   DRY(123,109)   DRY(124, 95)   
    DRY(124, 96)   DRY(124, 97)   DRY(124, 98)   DRY(124, 99)   DRY(124,100)   
    DRY(124,101)   DRY(124,102)   DRY(124,103)   DRY(124,104)   DRY(124,105)   
    DRY(124,106)   DRY(124,107)   DRY(125, 95)   DRY(125, 96)   DRY(125, 97)   
    DRY(125, 98)   DRY(125, 99)   DRY(125,100)   DRY(125,101)   DRY(125,102)   
    DRY(125,103)   DRY(125,104)   DRY(125,105)   DRY(126, 95)   DRY(126, 96)   
    DRY(126, 97)   DRY(126, 98)   DRY(126, 99)   DRY(126,100)   DRY(126,101)   
    DRY(126,102)   DRY(126,103)   DRY(127, 94)   DRY(127, 95)   DRY(127, 96)   
    DRY(127, 97)   DRY(127, 98)   DRY(127, 99)   DRY(127,100)   DRY(127,101)   
    DRY(127,102)   DRY(128, 94)   DRY(128, 95)   DRY(128, 96)   DRY(128, 97)   
    DRY(128, 98)   DRY(128, 99)   DRY(128,100)   DRY(129, 94)   DRY(129, 95)   
    DRY(129, 96)   DRY(129, 97)   DRY(129, 98)   DRY(130, 95)   DRY(130, 96)   
    DRY(130, 97)   DRY(130, 98)   DRY(131, 95)   DRY(131, 96)   DRY(131, 97)   
    DRY(131, 98)   DRY(132, 95)   DRY(132, 96)   DRY(132, 97)   DRY(133, 95)   
    DRY(133, 96)   DRY(133, 97)   DRY(134, 95)   DRY(134, 96)   DRY(134, 97)   
    DRY(135, 96)   DRY(135, 97)   DRY(136, 96)   DRY(136, 97)   DRY(137, 96)   
    DRY(137, 97)   DRY(138, 96)   DRY(138, 97)   DRY(139, 97)   DRY(140, 97)   

 CELL CONVERSIONS FOR ITER.=  1  LAYER=  2  STEP=  1  PERIOD=   1   (ROW,COL)
    DRY( 66,105)   DRY( 67,104)   DRY( 68,104)   DRY( 69,104)   DRY( 84,108)   
    DRY( 85,108)   DRY( 86,108)   DRY( 87,108)   DRY( 87,109)   DRY( 88,107)   
    DRY( 88,108)   DRY( 88,109)   DRY( 89,107)   DRY( 89,108)   DRY( 89,109)   
    DRY( 90,106)   DRY( 90,107)   DRY( 90,108)   DRY( 90,109)   DRY( 90,110)   
    DRY( 91,106)   DRY( 91,107)   DRY( 91,108)   DRY( 91,109)   DRY( 91,110)   
    DRY( 92,106)   DRY( 92,107)   DRY( 92,108)   DRY( 92,109)   DRY( 92,110)   
    DRY( 93,105)   DRY( 93,106)   DRY( 93,107)   DRY( 93,108)   DRY( 94,105)   
    DRY( 94,106)   DRY( 94,107)   DRY( 95,105)   DRY( 95,106)   DRY( 96,105)   
    DRY(108,107)   DRY(109,107)   DRY(109,108)   DRY(110,106)   DRY(110,107)   
    DRY(110,108)   DRY(110,109)   DRY(111,106)   DRY(111,107)   DRY(111,108)   
    DRY(111,109)   DRY(111,110)   DRY(112,105)   DRY(112,106)   DRY(112,107)   
    DRY(112,108)   DRY(112,109)   DRY(112,110)   DRY(113,105)   DRY(113,106)   
    DRY(113,107)   DRY(113,108)   DRY(113,109)   DRY(113,110)   DRY(114,105)   
    DRY(114,106)   DRY(114,107)   DRY(114,108)   DRY(114,109)   DRY(114,110)   
    DRY(114,111)   DRY(115,106)   DRY(115,107)   DRY(115,108)   DRY(115,109)   
    DRY(115,110)   DRY(115,111)   DRY(116,108)   DRY(116,109)   DRY(116,110)   
    DRY(116,111)   DRY(117,109)   DRY(117,110)   DRY(117,111)   DRY(118,109)   
    DRY(118,110)   DRY(118,111)   DRY(118,112)   DRY(119,109)   DRY(119,110)   
    DRY(119,111)   DRY(119,112)   DRY(120,108)   DRY(120,109)   DRY(120,110)   
    DRY(120,111)   DRY(120,112)   DRY(121,108)   DRY(121,109)   DRY(121,110)   
    DRY(121,111)   DRY(121,112)   DRY(122,107)   DRY(122,108)   DRY(122,109)   
    DRY(122,110)   DRY(122,111)   DRY(123,105)   DRY(123,106)   DRY(123,107)   
    DRY(123,108)   DRY(123,109)   DRY(124,103)   DRY(124,104)   DRY(124,105)   
    DRY(124,106)   DRY(124,107)   DRY(125,102)   DRY(125,103)   DRY(125,104)   
    DRY(125,105)   DRY(126,101)   DRY(126,102)   DRY(126,103)   DRY(127,101)   
    DRY(127,102)   

 MAXIMUM HEAD CHANGE FOR EACH ITERATION (1 INDICATES THE FIRST INNER ITERATION):

    HEAD CHANGE    HEAD CHANGE    HEAD CHANGE    HEAD CHANGE    HEAD CHANGE 
   LAYER,ROW,COL  LAYER,ROW,COL  LAYER,ROW,COL  LAYER,ROW,COL  LAYER,ROW,COL
 ---------------------------------------------------------------------------
  1   5424.      0   3509.      0   5017.      0   8023.      0   9016.    
   (  2,117,108)  (  2,111,105)  (  2,124,102)  (  2,100,101)  (  2,120,107)
  0   9668.      0  0.1490E+05  0  0.1222E+05  0   9155.      0   7704.    
   (  2,107,106)  (  2,117,108)  (  2, 55,106)  (  2, 98,103)  (  2,119,108)
  0   6470.      0   3756.      0   3669.      0   2243.      0   1237.    
   (  2, 55,106)  (  2,122,106)  (  2,117,108)  (  2, 99,102)  (  2,107,106)
  0   936.4      0   555.5      0   471.5      0   670.5      0   688.1    
   (  2,119,108)  (  1,171, 25)  (  2,183, 25)  (  2, 99,102)  (  2,194, 23)
  0   691.6      0   505.2      0   447.5      0   417.3      0   468.6    
   (  2,111,105)  (  2,187, 30)  (  1,200, 32)  (  2,121,107)  (  2,119,108)
  0   271.6      0   404.1      0   281.0      0   274.4      0   237.3    
   (  1,250,108)  (  1,249,109)  (  2,248, 53)  (  2,249, 50)  (  1,245,112)
  0   216.3      0   198.7      0  -190.2      0   143.2      0   114.4    
   (  2,238,112)  (  2,237,112)  (  2, 92,105)  (  1,217,110)  (  1,218,109)
  0  -103.7      0   72.21      0   66.02      0   61.84      0   41.61    
   (  2,111,105)  (  1,212,111)  (  2, 92,105)  (  2, 92,105)  (  1, 55,102)
  1  -124.4      0   202.1      0   257.4      0   439.9      0   736.7    
   (  2, 92,105)  (  2, 99,102)  (  2,120,107)  (  2,117,108)  (  2, 91,105)
  0   1222.      0   1635.      0   2194.      0   2601.      0   2939.    
   (  2, 89,106)  (  2, 99,102)  (  2, 92,105)  (  2, 89,106)  (  2, 98,103)
  0   2721.      0   3063.      0   3079.      0   3224.      0   2996.    
   (  2, 93,104)  (  2,121,107)  (  1,212,111)  (  1,213,110)  (  2, 98,103)
  0   2176.      0   1608.      0   1305.      0   1207.      0   1195.    
   (  1,212,111)  (  1,213,110)  (  2,110,105)  (  2,109,106)  (  2,111,105)
  0   1489.      0   1103.      0   1217.      0   933.4      0   678.4    
   (  2,100,101)  (  2,122,106)  (  2,100,101)  (  2, 99,102)  (  2,110,105)
  0   559.8      0   594.4      0   510.1      0   644.3      0   542.4    
   (  2, 99,102)  (  2,122,106)  (  2,123,103)  (  2,122,105)  (  2,123,103)
  0   562.1      0   586.5      0   532.5      0   654.4      0   409.1    
   (  2, 89,106)  (  2, 66,104)  (  2, 65,105)  (  2, 55,106)  (  2, 58,105)
  0   534.5      0   289.7      0   252.8      0   203.5      0   164.0    
   (  2, 57,106)  (  2, 58,105)  (  2, 56,106)  (  2, 47, 84)  (  2, 53, 74)
  1  -49.77      0   57.50      0   74.80      0   75.39      0   146.0    
   (  1,249,109)  (  1,249,111)  (  2,124,102)  (  2,109,106)  (  2,124,102)
  0   133.5      0   177.8      0   194.4      0   248.5      0   237.5    
   (  2,107,106)  (  2,121,107)  (  2,119,108)  (  2,121,107)  (  2,119,108)
  0   282.5      0   256.9      0   346.3      0   393.5      0   565.8    
   (  2, 55,106)  (  2,123,104)  (  2, 55,106)  (  2, 63, 64)  (  2, 98,103)
  0   754.3      0   975.3      0   1068.      0   1424.      0   1339.    
   (  2, 55,106)  (  2, 98,103)  (  2, 99,102)  (  2, 98,103)  (  2, 99,102)
  0   2027.      0   2733.      0   1901.      0   1444.      0   1362.    
   (  2, 90,105)  (  2, 89,106)  (  2,123,104)  (  2,122,106)  (  2,111,105)
  0   1271.      0   1014.      0   836.0      0   695.8      0   422.3    
   (  2,122,105)  (  2,117,108)  (  1,141, 96)  (  2,100,101)  (  2, 99,102)
  0   354.5      0   289.6      0   234.2      0   192.0      0   157.3    
   (  2,100,101)  (  2,206,112)  (  2,205,112)  (  2,125,101)  (  2,122,106)
  0   98.60      0   90.73      0   55.89      0   94.95      0   99.44    
   (  2,119,108)  (  2,122,106)  (  1,250,108)  (  1,249,111)  (  2,111,105)
  1  -44.96      0   44.04      0   38.09      0   61.51      0   60.08    
   (  2,111,105)  (  1,249,109)  (  1,248,112)  (  2,249,109)  (  2,110,105)
  0   68.02      0   69.77      0   76.98      0   95.42      0   77.39    
   (  1,249,111)  (  1,250,108)  (  1,249,109)  (  2,121,107)  (  2,119,108)
  0   112.0      0   79.40      0   88.80      0   100.6      0   98.32    
   (  2,121,107)  (  1,217,110)  (  2,218,109)  (  1,213,110)  (  1,207,111)
  0   105.8      0   86.55      0   81.15      0   93.15      0   104.8    
   (  1,206,112)  (  1,207,111)  (  2, 99,102)  (  1,206,112)  (  2, 99,102)
  0   218.9      0   255.3      0   177.0      0   163.5      0   115.6    
   (  2,162, 26)  (  2,122,106)  (  2,123,104)  (  2,124,102)  (  2,122,106)
  0   120.3      0   158.1      0   226.1      0   327.2      0   491.8    
   (  2,123,104)  (  2,124,102)  (  2,123,103)  (  2,124,102)  (  2, 97,104)
  0   752.9      0   1100.      0   1229.      0   1335.      0   1266.    
   (  2, 99,102)  (  2, 55,106)  (  2, 99,102)  (  2, 92,105)  (  2, 89,106)
  0   1037.      0   810.8      0   533.8      0   265.3      0   154.6    
   (  2, 90,105)  (  2, 88,106)  (  2, 66,104)  (  2, 52, 96)  (  1,249,109)
  1  -34.95      0   35.26      0  -32.72      0  -41.57      0   25.49    
   (  1,249,109)  (  2,249,111)  (  2,121,107)  (  2,122,106)  (  2,110,105)
  0  -26.85      0  -21.68      0   36.09      0   31.98      0   34.05    
   (  2,122,106)  (  2,120,107)  (  2,121,107)  (  2,119,108)  (  2,121,107)
  0   31.28      0   37.97      0   43.98      0   55.50      0   57.10    
   (  2,119,108)  (  2,249,111)  (  2,234,111)  (  1,213,110)  (  1,212,111)
  0   55.66      0   47.99      0   43.46      0   43.21      0   54.44    
   (  1,217,110)  (  1,237, 26)  (  2,241, 36)  (  2, 98,103)  (  2, 99,102)
  0   85.97      0   115.0      0   92.24      0   78.89      0   83.57    
   (  2,237, 27)  (  2,122,106)  (  2,123,104)  (  2,124,102)  (  2,157, 31)
  0   88.30      0   78.85      0   69.48      0   62.85      0   78.76    
   (  2,151, 33)  (  1,148, 35)  (  2,100,101)  (  1,150, 33)  (  2,100,101)
  0   91.24      0   137.1      0   180.3      0   212.3      0   247.6    
   (  2,179, 99)  (  2,124,102)  (  2, 99,102)  (  2,122,106)  (  2,124,102)
  0   344.5      0   384.2      0   377.2      0   523.0      0   479.9    
   (  2,122,106)  (  2, 92,105)  (  2, 92,105)  (  2, 89,106)  (  2, 91,105)
  1  -36.73      0   47.68      0  -28.49      0   30.80      0  -25.79    
   (  2,111,105)  (  1,249,109)  (  2,122,106)  (  1,249,109)  (  2,123,104)
  0   32.32      0   26.01      0   23.37      0   22.41      0   27.32    
   (  2, 55,106)  (  2,111,105)  (  2,121,107)  (  2,122,106)  (  2,121,107)
  0   22.99      0   16.08      0   19.56      0   15.47      0   17.93    
   (  2,119,108)  (  2,121,107)  (  2,124,102)  (  1, 80, 47)  (  2,100,101)
  0   17.39      0   15.17      0   21.99      0   33.64      0   38.30    
   (  2, 99,102)  (  2, 70, 55)  (  2, 99,102)  (  2, 98,103)  (  2, 55,106)
  0   62.02      0   51.16      0   93.54      0   97.25      0   123.6    
   (  2, 98,103)  (  2, 97,104)  (  2, 98,103)  (  2,122,106)  (  2, 98,103)
  0   156.5      0   194.9      0   212.1      0   284.1      0   255.4    
   (  2, 99,102)  (  2,122,106)  (  2, 99,102)  (  2,100,101)  (  2, 88,106)
  0   295.8      0   274.6      0   201.5      0   211.6      0   180.7    
   (  2,100,101)  (  2, 99,102)  (  2, 99, 43)  (  2,122,106)  (  2,123,104)
  0   166.1      0   121.5      0   81.61      0   48.74      0   35.13    
   (  2,122,106)  (  2,123,104)  (  2,121,107)  (  2, 88,106)  (  1,250,108)
  1   21.13      0  -19.60      0   25.01      0  -20.79      0  -18.41    
   (  1,249,111)  (  2,121,107)  (  1,249,109)  (  2,124,102)  (  2,123,104)
  0   22.89      0   17.81      0   15.93      0   19.95      0   26.56    
   (  2, 55,106)  (  2,111,105)  (  2, 55,106)  (  2,122,106)  (  2,121,107)
  0   20.22      0   16.92      0   15.52      0  -20.08      0  -15.55    
   (  2,119,108)  (  2,121,107)  (  2,124,102)  (  2, 55,106)  (  2,121,107)
  0  -19.05      0  -16.58      0  -16.13      0  -12.63      0  -12.73    
   (  2,123,104)  (  2,124,102)  (  2,122,106)  (  2, 99,102)  (  2, 98,103)
  0   32.13      0  -21.97      0   18.31      0  -10.65      0   11.88    
   (  2,250,108)  (  2, 98,103)  (  2,123,104)  (  2, 98,103)  (  2,122,106)
  0   12.67      0   14.75      0   14.67      0   24.98      0   18.81    
   (  2,123,104)  (  2,122,106)  (  2,123,103)  (  2,100,101)  (  2,179, 30)
  0   27.27      0   26.53      0   20.95      0   33.89      0   41.13    
   (  2,100,101)  (  2, 99,102)  (  2,228, 24)  (  2,228, 24)  (  2, 89,106)
  0   57.20      0   95.79      0   86.16      0   91.19      0   186.2    
   (  2, 90,105)  (  2, 88,106)  (  2,122,106)  (  2,119,108)  (  2, 89,106)
  1   28.66      0  -10.25      0  -15.80      0  -13.29      0   16.27    
   (  1,249,111)  (  2,119,108)  (  2,122,106)  (  2,125,101)  (  2, 89,106)
  0   13.73      0   9.924      0   11.67      0   16.63      0   11.81    
   (  2, 91,105)  (  2,121,107)  (  2,119,108)  (  2,121,107)  (  2,119,108)
  0   12.85      0   8.682      0   8.472      0   8.527      0  -8.234    
   (  2,121,107)  (  1,250,108)  (  2, 56,106)  (  2,100,101)  (  2,122,106)
  0  -10.22      0  -8.772      0   8.896      0   9.333      0   10.34    
   (  2,123,104)  (  2,122,106)  (  2,213,110)  (  1,212,111)  (  1,213,110)
  0   21.17      0   41.69      0   33.71      0   32.67      0   33.04    
   (  2,244, 34)  (  2,244, 41)  (  2,122,106)  (  2, 99,102)  (  2, 98,103)
  0   41.22      0   49.38      0   42.43      0   29.22      0   22.78    
   (  2,218, 26)  (  2,247,110)  (  1,249,111)  (  1,249,110)  (  2,100,101)
  0   19.86      0   37.17      0   48.52      0   61.28      0   58.16    
   (  1,217,110)  (  2,124,102)  (  2,122,106)  (  2,124,102)  (  2,122,106)
  0   50.22      0   64.29      0   76.48      0   124.4      0   77.35    
   (  2,123,104)  (  2,122,106)  (  2,123,104)  (  2,111,105)  (  2,111,105)
  1  -17.76      0  -15.11      0  -17.67      0  -9.813      0   9.566    
   (  2,111,105)  (  2,107,106)  (  2,122,106)  (  2,121,107)  (  1,249,111)
  0   11.50      0   11.58      0   11.47      0   9.991      0   12.10    
   (  2, 55,106)  (  2, 52, 93)  (  2, 57,106)  (  2,122,106)  (  2,121,107)
  0   10.32      0   9.047      0   8.413      0   7.106      0   10.60    
   (  2,119,108)  (  2,121,107)  (  2, 57,106)  (  2, 80, 47)  (  2, 55,106)
  0   8.303      0   9.150      0   9.414      0   10.05      0   10.73    
   (  2, 95, 41)  (  2, 55,106)  (  2, 89,106)  (  2, 99,102)  (  2, 98,103)
  0   30.86      0   30.84      0   27.49      0   40.99      0   29.59    
   (  2, 97,104)  (  2, 98,103)  (  2,123,104)  (  2, 98,103)  (  2, 99,102)
  0   22.45      0   17.83      0   14.21      0   20.89      0   27.01    
   (  2, 98,103)  (  2, 57,106)  (  2,110,105)  (  2, 57,106)  (  2,100,101)
  0   28.21      0   22.57      0   22.74      0   20.23      0   29.27    
   (  1,102, 45)  (  2, 68, 55)  (  2, 99,102)  (  2,100,101)  (  2, 99,102)
  0   42.23      0   59.03      0   69.03      0   90.37      0   87.97    
   (  2,100,101)  (  2,124,102)  (  2,100,101)  (  2,124,102)  (  2,131, 98)
  1   16.97      0  -9.335      0  -10.60      0  -12.30      0  -9.325    
   (  1,249,109)  (  2,121,107)  (  2,123,104)  (  2,122,106)  (  2,123,104)
  0  -7.952      0   7.097      0   6.201      0   5.608      0   6.384    
   (  2,122,106)  (  2, 99,102)  (  1,250,108)  (  2,238,109)  (  2,121,107)
  0   6.496      0   7.097      0   4.182      0   4.514      0   5.937    
   (  2,119,108)  (  2,121,107)  (  2,119,108)  (  2,121,107)  (  2,100,101)
  0   5.724      0   5.123      0   4.362      0   4.081      0   5.100    
   (  2,124,102)  (  2,247, 42)  (  2,213,110)  (  2,242, 43)  (  2,123,104)
  0   13.99      0   23.07      0   32.62      0   32.85      0   35.99    
   (  2,237, 26)  (  2,122,106)  (  2,221, 25)  (  2,228, 24)  (  2,220, 38)
  0   39.95      0   46.74      0   48.40      0   44.80      0   26.99    
   (  2,226, 38)  (  2, 98,103)  (  1,176, 32)  (  2, 98,103)  (  2,162, 29)
  0   18.75      0   21.44      0   30.61      0   41.76      0   34.43    
   (  1,206,112)  (  2, 55,106)  (  2,123,104)  (  2,122,106)  (  2,119,108)
  0   30.97      0   34.63      0   47.75      0   53.17      0   31.92    
   (  2,122,106)  (  2,100,101)  (  2, 93,103)  (  1,249,111)  (  2, 92,105)
  1   11.06      0  -4.223      0  -5.454      0  -7.311      0   6.538    
   (  1,249,109)  (  2,121,107)  (  2,123,104)  (  2,124,102)  (  2, 91,105)
  0   8.509      0   7.200      0   7.047      0   5.219      0   6.454    
   (  2, 55,106)  (  2, 99,102)  (  2, 57,106)  (  2, 58,105)  (  2,100,101)
  0   5.282      0   6.385      0   5.055      0   4.807      0   5.964    
   (  2,119,108)  (  2,121,107)  (  2,100,101)  (  2, 80, 48)  (  2,110,105)
  0   5.807      0   5.917      0   6.410      0   5.826      0   7.847    
   (  2, 90,105)  (  2, 97,104)  (  2, 98,103)  (  2,124,102)  (  2, 98,103)
  0   20.38      0   17.19      0   11.99      0   7.940      0   6.914    
   (  2, 99,102)  (  2,124,102)  (  2,123,104)  (  2, 98,103)  (  2, 57,106)
  0   5.779      0   3.895      0   5.824      0   7.871      0   10.09    
   (  2,123,104)  (  2,122,105)  (  2, 57,106)  (  2,122, 44)  (  2, 55,106)
  0   7.428      0   10.01      0   11.29      0   13.79      0   19.41    
   (  2,129, 38)  (  2,122,106)  (  2,119,108)  (  2,122,106)  (  2, 88,106)
  0   27.35      0   28.30      0   40.36      0   39.08      0   50.22    
   (  2,122,106)  (  2, 89,106)  (  2, 92,105)  (  2, 89,106)  (  1,249,111)
  1   3.566      0  -6.890      0   7.808      0   5.780      0   7.711    
   (  2,125,101)  (  2,107,106)  (  1,249,109)  (  1,250,108)  (  1,249,111)
  0   5.736      0   3.747      0   3.555      0  -3.207      0   4.212    
   (  2, 55,106)  (  1,249,111)  (  2, 57,106)  (  2,100,101)  (  2,100,101)
  0   3.175      0   4.518      0   3.403      0   2.910      0   3.621    
   (  2,119,108)  (  2,121,107)  (  2,100,101)  (  2,109,106)  (  2,110,105)
  0   3.413      0   2.848      0   3.466      0   3.820      0   4.291    
   (  2, 99,102)  (  2,111,105)  (  2, 90,105)  (  2, 88,106)  (  2, 55,106)
  0   8.446      0   12.91      0   15.99      0   26.48      0   27.35    
   (  2, 99,102)  (  2, 98,103)  (  2, 55,106)  (  2, 98,103)  (  2, 89,106)
  0   34.30      0   69.10      0   76.91      0   54.35      0   57.31    
   (  2, 92,105)  (  2, 93,104)  (  2, 57,106)  (  2,100,101)  (  2, 55,106)
  0   36.58      0   24.75      0   28.75      0   34.12      0   25.08    
   (  2,100,101)  (  2,124,102)  (  2,123,104)  (  2,122,106)  (  2,119,108)
  0   22.67      0   22.15      0   11.02      0   8.078      0   6.520    
   (  2,122,106)  (  2,124,102)  (  2,122,105)  (  2,249,109)  (  1,248,112)
  1   3.826      0   2.875      0   4.316      0   3.429      0   3.852    
   (  1,249,111)  (  1,248,112)  (  1,249,109)  (  1,250,108)  (  1,249,111)
  0   3.570      0  -2.520      0   2.448      0  -3.385      0   3.025    
   (  2, 55,106)  (  2,109,106)  (  1,236,112)  (  2,100,101)  (  2,100,101)
  0  -2.615      0   2.096      0   2.179      0  -2.633      0  -2.326    
   (  2,100,101)  (  1,212,111)  (  1,248, 54)  (  2,121,107)  (  2,122,106)
  0  -3.037      0  -2.165      0   1.802      0  -1.482      0   1.683    
   (  2,121,107)  (  2,119,108)  (  2,245, 38)  (  2, 55,106)  (  1,206,112)
  0   4.175      0   3.505      0  -2.684      0  -2.383      0   1.628    
   (  2,225, 25)  (  2,224, 25)  (  2, 98,103)  (  2, 99,102)  (  2, 99,102)
  0   1.943      0   2.574      0   2.146      0   1.282      0   1.513    
   (  2,181, 30)  (  2,174, 26)  (  2,171, 25)  (  2,171, 25)  (  2, 98,103)
  0   2.379      0   4.931      0   11.57      0   24.33      0   33.68    
   (  2,100,101)  (  2,124,102)  (  2,123,104)  (  2,122,106)  (  2, 87, 41)
  0   29.68      0   36.59      0   48.74      0   55.47      0   25.40    
   (  2,122,106)  (  2,124,102)  (  2,100,101)  (  2, 93,103)  (  2, 91,105)
  1   2.024      0  -1.996      0   3.080      0   1.510      0   1.750    
   (  1,249,109)  (  1,249,111)  (  1,249,109)  (  1,248,112)  (  2, 99,102)
  0   1.824      0   1.793      0   1.301      0  -1.410      0   1.556    
   (  2, 55,106)  (  2, 99,102)  (  2,100,101)  (  2,100,101)  (  2,100,101)
  0  -1.413      0  -1.269      0  -1.711      0  -1.583      0  -1.333    
   (  2,100,101)  (  2,119,108)  (  2,121,107)  (  2,118,108)  (  2,120,107)
  0  -1.385      0  0.9915      0  0.9844      0  0.7994      0  0.8511    
   (  2,111,105)  (  2,212,111)  (  2,215,110)  (  2, 89,106)  (  1,217,110)
  0   2.306      0   2.784      0   2.453      0   1.978      0   1.570    
   (  1,212,111)  (  1,213,110)  (  1,207,111)  (  1,207,111)  (  1,206,112)
  0   1.307      0  0.9324      0   1.221      0   1.295      0   2.037    
   (  1,212,111)  (  1,248,112)  (  2,123,104)  (  2,249,111)  (  2,249,111)
  0   1.933      0   2.398      0   3.230      0   3.769      0   6.860    
   (  1,248,112)  (  2,124,102)  (  2,123,103)  (  2,122,105)  (  2,117,108)
  0   10.32      0   12.10      0   16.45      0   16.97      0   16.31    
   (  2,122,105)  (  2,124,102)  (  2, 89,105)  (  2, 89,105)  (  2,124,102)
  1   2.266      0   1.522      0   2.045      0   1.591      0   1.477    
   (  1,249,111)  (  1,248,112)  (  1,249,109)  (  2, 55,106)  (  2,124,102)
  0   1.924      0  0.8635      0   1.145      0  0.7033      0  0.8725    
   (  2, 55,106)  (  2, 59,104)  (  2, 55,106)  (  2,123,103)  (  2, 57,106)
  0  0.5989      0 -0.6498      0 -0.5746      0  0.6340      0 -0.7279    
   (  1,206,112)  (  2,122,106)  (  2,121,107)  (  2,121,107)  (  2,120,107)
  0  0.8513      0  0.7085      0  0.8618      0  0.6577      0  0.7899    
   (  2,121,107)  (  2,218,109)  (  1,217,110)  (  1,212,111)  (  2, 57,106)
  0   2.330      0   2.400      0   3.393      0   3.211      0   3.876    
   (  2,237, 26)  (  2,228, 27)  (  2, 98,103)  (  1,237, 26)  (  2, 98,103)
  0   3.479      0   7.396      0   9.850      0   8.954      0   8.339    
   (  2, 99,102)  (  2,100,101)  (  2, 99,102)  (  2,194, 25)  (  2, 99,102)
  0   5.866      0   7.609      0   9.324      0   8.111      0   4.507    
   (  1,206,112)  (  2,183,102)  (  2,100,101)  (  2,182,105)  (  2,178,101)
  0   3.873      0   3.040      0   2.926      0   2.496      0   4.006    
   (  2,125,101)  (  1,172,102)  (  1,249,111)  (  2,125,101)  (  2,124,102)
  1  0.9961      0  0.9507      0   1.220      0   1.101      0   1.295    
   (  1,249,111)  (  2,124,102)  (  1,249,111)  (  2, 55,106)  (  2,124,102)
  0   1.537      0  0.9864      0   1.365      0  0.8199      0   1.343    
   (  2, 55,106)  (  2, 59,104)  (  2, 55,106)  (  2, 58,105)  (  2, 55,106)
  0  0.9823      0   1.133      0  0.9430      0  0.9600      0  0.9618    
   (  2, 58,102)  (  2, 57,106)  (  2, 77, 47)  (  1, 72, 51)  (  2, 55,106)
  0   1.021      0  0.8462      0  0.6000      0  0.4901      0  0.6644    
   (  2,121,107)  (  2,123,104)  (  2,121,107)  (  2, 93,103)  (  2, 57,106)
  0   1.833      0   1.479      0   1.375      0   1.013      0  0.5890    
   (  2,100,101)  (  2, 97,104)  (  2,100,101)  (  2, 98,103)  (  2, 91,104)
  0  0.9916      0  0.6256      0  0.8225      0   1.089      0  0.9303    
   (  2, 98,103)  (  2, 99,102)  (  2, 98,103)  (  2, 99,102)  (  2,110,105)
  0  0.9795      0   1.432      0   1.576      0   1.626      0   2.218    
   (  2, 99,102)  (  2, 89,106)  (  2, 92,105)  (  2,100,101)  (  2,110,105)
  0   4.056      0   4.412      0   5.291      0   6.206      0   7.121    
   (  2,100,101)  (  1,249,111)  (  1,248,112)  (  1,249,111)  (  1,248,112)
  1  0.9202      0 -0.8474      0  0.5859      0  0.6162      0  0.9278    
   (  1,249,111)  (  1,249,111)  (  1,249,109)  (  2,109,106)  (  2,111,105)
  0  0.8333      0  0.6173      0  0.5202      0  0.4668      0  0.4386    
   (  2,100,101)  (  2, 99,102)  (  2,124,102)  (  2, 99,102)  (  2,110,105)
  0  0.4906      0  0.4216      0  0.4282      0  0.4326      0  0.3510    
   (  2, 99,102)  (  1, 51, 86)  (  2, 55,106)  (  2, 98,103)  (  2, 99,102)
  0  0.5787      0  0.4447      0  0.4949      0  0.5843      0  0.6093    
   (  2, 98,103)  (  2,122,106)  (  2,121,107)  (  2, 98,103)  (  2, 99,102)
  0   1.652      0   1.439      0   1.737      0   1.786      0   1.900    
   (  2, 98,103)  (  2, 90,105)  (  2, 98,103)  (  2, 88,106)  (  2, 92,105)
  0   2.358      0   2.552      0   2.168      0   1.604      0   2.073    
   (  2,123,103)  (  2,122,106)  (  2, 56,106)  (  2, 89,106)  (  2, 55,106)
  0   2.039      0   1.628      0   1.506      0   2.373      0   3.197    
   (  2,123,104)  (  2, 55,106)  (  2,117,108)  (  2,122,105)  (  2,100,101)
  0   2.235      0   1.523      0   1.326      0   2.640      0   3.683    
   (  2, 94,104)  (  2,100,101)  (  2, 92,105)  (  1,249,111)  (  2,100,101)
  1  0.7071      0 -0.4599      0  0.5739      0  0.4319      0  0.5886    
   (  1,249,111)  (  1,249,111)  (  1,249,109)  (  2,109,106)  (  2, 99,102)
  0  0.5382      0  0.4601      0  0.5145      0 -0.3794      0  0.4441    
   (  2, 55,106)  (  2, 99,102)  (  2,100,101)  (  2,100,101)  (  2,100,101)
  0  0.3566      0 -0.3468      0 -0.3408      0 -0.3529      0 -0.4204    
   (  2,245,102)  (  2,107,106)  (  2,111,105)  (  2, 99,102)  (  2, 98,103)
  0  0.3337      0 -0.3358      0  0.3075      0  0.3031      0  0.3554    
   (  2, 98,103)  (  2,120,107)  (  1,217,110)  (  2,207,111)  (  1,206,112)
  0  0.8591      0   1.104      0   1.079      0   1.392      0  0.6931    
   (  2,182, 29)  (  2,187, 25)  (  2,186, 24)  (  2,185, 30)  (  1,217,110)
  0  0.4219      0  0.4650      0  0.6129      0  0.7794      0  0.5985    
   (  2,218,109)  (  1,213,110)  (  2,123,104)  (  2,124,102)  (  1,248,112)
  0  0.8122      0   1.210      0   1.795      0   3.099      0   3.436    
   (  2,100,101)  (  2,124,102)  (  2,123,103)  (  2,122,105)  (  2,118,108)
  0   2.862      0   4.268      0   4.482      0   2.938      0   2.816    
   (  2,122,106)  (  2, 89,106)  (  2,100,101)  (  1,249,111)  (  1, 48, 89)
  1  0.6672      0 -0.4053      0  0.3623      0  0.4987      0  0.4227    
   (  1,249,111)  (  1,249,111)  (  1, 56,102)  (  2, 55,106)  (  2, 57,101)
  0  0.7368      0  0.3868      0  0.4200      0  0.1968      0  0.2020    
   (  2, 55,106)  (  2, 58,104)  (  2, 57,106)  (  2, 91,105)  (  2, 55,106)
  0  0.2184      0  0.1876      0  0.1952      0  0.1733      0  0.1798    
   (  2, 99,102)  (  2,110,105)  (  2, 99,102)  (  2, 78, 47)  (  2, 86, 45)
  0  0.2433      0  0.2373      0  0.2908      0  0.2976      0  0.3518    
   (  2,121,107)  (  2, 93, 40)  (  2, 56,106)  (  2,100,101)  (  2, 55,106)
  0   1.040      0   1.253      0   1.363      0  0.9628      0   2.051    
   (  2, 98,103)  (  2,100,101)  (  2, 98,103)  (  2, 94,104)  (  2, 98,103)
  0   1.587      0   1.655      0   3.441      0   3.988      0   4.343    
   (  2, 94,104)  (  2,100,101)  (  2, 99,102)  (  2, 97,104)  (  2, 99,102)
  0   4.885      0   5.628      0   4.868      0   3.011      0   2.710    
   (  2, 89,106)  (  2,124,102)  (  2, 89,106)  (  2,124,102)  (  2,127, 38)
  0   2.062      0  0.7550      0  0.3651      0  0.4244      0  0.6121    
   (  2,124, 42)  (  1,249,109)  (  1,248,112)  (  1,249,111)  (  2,111,105)
  1  0.3584      0 -0.2046      0  0.2035      0 -0.2237      0  0.2719    
   (  1,249,111)  (  1,249,111)  (  1,249,109)  (  2,111,105)  (  2,110,105)
  0 -0.2822      0  0.1932      0  0.2114      0 -0.1782      0  0.1289    
   (  2,110,105)  (  2,229, 29)  (  2, 89,106)  (  2,124,102)  (  2,234, 33)
  0  0.1538      0 -0.2255      0  0.1497      0 -0.1972      0 -0.2275    
   (  2, 99,102)  (  2, 99,102)  (  1,217,110)  (  2,119,108)  (  2,120,107)
  0  0.1754      0 -0.2136      0  0.2211      0  0.1825      0  0.1707    
   (  2,121,107)  (  2,120,107)  (  1,217,110)  (  1,212,111)  (  1,206,112)
  0  0.3948      0 -0.2727      0  0.2108      0 -0.1682      0  0.1448    
   (  2,242,103)  (  2, 98,103)  (  2, 98,103)  (  2, 98,103)  (  2, 98,103)
  0  0.1066      0  0.1487      0  0.2070      0  0.2562      0  0.2890    
   (  2,123,103)  (  2,124,102)  (  2,165, 29)  (  2,169, 25)  (  2,171, 25)
  0  0.3688      0  0.2162      0  0.2240      0  0.3805      0  0.4253    
   (  2,195, 23)  (  2,124,102)  (  2,100,101)  (  2, 55,106)  (  2,124,102)
  0  0.5991      0  0.7145      0   1.047      0   1.241      0   2.059    
   (  2,119, 41)  (  2,124,102)  (  1,249,109)  (  2,122,105)  (  2,124,102)
  1  0.1658      0 -0.1570      0  0.2433      0  0.1329      0  0.2035    
   (  1,249,109)  (  1,249,111)  (  1,249,111)  (  2, 89,106)  (  2,110,105)
  0  0.1705      0  0.1523      0  0.1375      0 -0.1335      0  0.1916    
   (  2,109,106)  (  2,110,105)  (  2, 57,106)  (  2,124,102)  (  2, 56,106)
  0  0.1230      0  0.1591      0  0.8803E-01  0  0.9322E-01  0  0.9899E-01
   (  2, 58,103)  (  2, 55,106)  (  1,217,110)  (  2,218,109)  (  1,217,110)
  0  0.8984E-01  0 -0.1131      0  0.1392      0  0.1301      0  0.1524    
   (  2,120,107)  (  2,121,107)  (  2,121,107)  (  1,212,111)  (  1,206,112)
  0  0.3240      0  0.4312      0  0.5021      0  0.7578      0  0.7117    
   (  1,207,111)  (  1,217,110)  (  1,212,111)  (  2,221, 87)  (  2,123,104)
  0  0.8711      0  0.7233      0  0.7989      0  0.7317      0  0.3978    
   (  2,100,101)  (  2, 99,102)  (  2, 98,103)  (  1,216, 24)  (  2, 98,103)
  0  0.2346      0  0.4448      0  0.4978      0  0.8141      0  0.9977    
   (  2,100,101)  (  2, 88,106)  (  2, 97,104)  (  2, 99,102)  (  2,100,101)
  0   1.639      0   2.211      0   1.489      0   1.431      0  0.8386    
   (  2, 90,105)  (  2, 89,106)  (  2, 92,105)  (  2, 89,106)  (  1,249,109)
  1 -0.1525      0  0.2203      0  0.1369      0  0.1715      0  0.2398    
   (  1,249,111)  (  1,249,111)  (  2,124,102)  (  2,109,106)  (  2,111,105)
  0  0.1920      0  0.1640      0  0.1080      0  0.7472E-01  0  0.9118E-01
   (  2,107,106)  (  2,110,105)  (  2,124,102)  (  2,122,105)  (  2,124,102)
  0  0.5883E-01  0  0.9354E-01  0  0.5870E-01  0  0.8853E-01  0  0.1026    
   (  2,108,106)  (  2, 98,103)  (  2, 47, 85)  (  2, 98,103)  (  2, 99,102)
  0  0.1200      0  0.1289      0  0.1144      0  0.1168      0  0.1374    
   (  2, 98,103)  (  2, 56,106)  (  2, 66,104)  (  2, 58,104)  (  2, 55,106)
  0  0.3161      0  0.2414      0  0.2384      0  0.2724      0  0.2248    
   (  2, 59,104)  (  2,120,107)  (  2,100,101)  (  2, 99,102)  (  2, 98,103)
  0  0.3395      0  0.3752      0  0.2967      0  0.3385      0  0.2938    
   (  2,100,101)  (  2,122,105)  (  2, 97,104)  (  2, 99,102)  (  2, 89,106)
  0  0.2669      0  0.3063      0  0.2589      0  0.4213      0  0.2988    
   (  2, 99,102)  (  2,100,101)  (  2,123,103)  (  2,100,101)  (  2, 86, 41)
  0  0.3304      0  0.4172      0  0.3186      0  0.3663      0  0.6096    
   (  2, 92,105)  (  2, 89,106)  (  2, 92,105)  (  1,248,112)  (  1,249,111)
  1 -0.1339      0  0.1371      0  0.1148      0  0.9156E-01  0  0.1285    
   (  1,249,111)  (  1,249,111)  (  2, 88,106)  (  2,249,109)  (  2, 88,106)
  0  0.1077      0  0.1119      0  0.9029E-01  0  0.5509E-01  0  0.6781E-01
   (  2, 55,106)  (  2,111,105)  (  2, 57,106)  (  1,238,109)  (  2, 57,106)
  0  0.5556E-01  0  0.5832E-01  0  0.6330E-01  0  0.6609E-01  0  0.6790E-01
   (  1,206,112)  (  1,212,111)  (  1,217,110)  (  2,218,109)  (  1,213,110)
  0  0.5973E-01  0  0.6765E-01  0  0.7070E-01  0  0.6684E-01  0  0.7545E-01
   (  2,212,111)  (  2,218,109)  (  1,217,110)  (  2,207,111)  (  1,206,112)
  0  0.2450      0  0.3204      0  0.2804      0  0.1872      0  0.2055    
   (  2,204, 35)  (  1,224, 23)  (  1,206,112)  (  2,236, 26)  (  1,213,110)
  0  0.1524      0  0.2040      0  0.2827      0  0.3089      0  0.2393    
   (  2,107,106)  (  2,124,102)  (  2,123,103)  (  2,122,105)  (  2,123,103)
  0  0.2563      0  0.2303      0  0.2037      0  0.2124      0  0.3151    
   (  2,122,106)  (  2,124,102)  (  2, 99,102)  (  2,100,101)  (  2, 99,102)
  0  0.8044      0   1.754      0   2.146      0   1.708      0  0.5527    
   (  2,122,105)  (  2, 58,105)  (  2, 55,106)  (  2, 48, 86)  (  2, 48, 83)
  1  0.7179E-01  0  0.7784E-01  0  0.1140      0  0.6862E-01  0  0.1077    
   (  1,249,111)  (  2, 88,106)  (  1,249,111)  (  2,244, 34)  (  2, 88,106)
  0  0.6021E-01  0  0.6705E-01  0  0.7674E-01  0  0.3927E-01  0  0.5419E-01
   (  2, 55,106)  (  2,111,105)  (  2, 57,106)  (  2, 58,105)  (  2, 55,106)
  0  0.2461E-01  0  0.3205E-01  0 -0.2709E-01  0 -0.3487E-01  0 -0.4450E-01
   (  2, 58,103)  (  2, 55,106)  (  2,111,105)  (  2,119,108)  (  2,120,107)
  0  0.3127E-01  0  0.4087E-01  0  0.4251E-01  0  0.4129E-01  0  0.4811E-01
   (  1, 56, 73)  (  2, 57,106)  (  1,217,110)  (  2,100,101)  (  2, 56,106)
  0  0.1759      0  0.1548      0  0.1934      0  0.1922      0  0.2673    
   (  2, 98,103)  (  2,100,101)  (  2, 98,103)  (  2,124,102)  (  2, 98,103)
  0  0.4672      0  0.5302      0  0.4625      0  0.4424      0  0.8614    
   (  2,123,104)  (  2,124,102)  (  2,123,104)  (  2,100,101)  (  2, 99,102)
  0  0.6879      0  0.8094      0  0.8579      0   1.194      0  0.5574    
   (  2, 89,106)  (  2,124,102)  (  2,123,103)  (  2,122,105)  (  2,118,108)
  0  0.3122      0  0.1268      0  0.7863E-01  0  0.7130E-01  0  0.6012E-01
   (  2,122,106)  (  2,124,102)  (  2, 57, 95)  (  2, 55,106)  (  2, 55,102)
  1 -0.3383E-01  0  0.5382E-01  0  0.4995E-01  0 -0.2933E-01  0  0.4381E-01
   (  2, 89,106)  (  2, 88,106)  (  1,249,111)  (  1,249,111)  (  2, 89,106)
  0  0.3445E-01  0  0.2548E-01  0  0.4029E-01  0  0.2060E-01  0  0.2920E-01
   (  2, 55,106)  (  2,111,105)  (  2, 56,106)  (  2, 58,105)  (  2, 55,106)
  0  0.1191E-01  0 -0.1565E-01  0 -0.1384E-01  0 -0.1825E-01  0 -0.2454E-01
   (  2, 58,105)  (  2,122,105)  (  2,121,107)  (  2,119,108)  (  2,120,107)
  0 -0.1656E-01  0  0.2128E-01  0  0.2348E-01  0  0.2029E-01  0  0.2238E-01
   (  2,117,108)  (  2,218,109)  (  1,217,110)  (  1,212,111)  (  1,206,112)
  0  0.9351E-01  0  0.8216E-01  0  0.9187E-01  0  0.9144E-01  0  0.9072E-01
   (  2,243,106)  (  2, 99,102)  (  2, 98,103)  (  1,212,111)  (  2, 98,103)
  0  0.1584      0  0.1701      0  0.1536      0  0.1978      0  0.2243    
   (  2,218,109)  (  1,217,110)  (  2,122,106)  (  2,124,102)  (  2,122,105)
  0  0.2266      0  0.2653      0  0.2863      0  0.2465      0  0.1437    
   (  2,124,102)  (  2,237, 27)  (  2,100,101)  (  2,167, 24)  (  2,100,101)
  0  0.1023      0  0.9469E-01  0  0.7643E-01  0  0.7544E-01  0  0.1324    
   (  2, 99,102)  (  2,100,101)  (  2, 99,102)  (  2, 50, 98)  (  2, 60, 98)
  1 -0.2546E-01  0  0.3272E-01  0  0.2530E-01  0  0.3208E-01  0  0.4132E-01
   (  1,249,111)  (  1,249,109)  (  2, 88,106)  (  2,109,106)  (  2,100,101)
  0  0.3079E-01  0  0.2608E-01  0  0.3252E-01  0  0.2073E-01  0  0.2530E-01
   (  2, 99,102)  (  2,100,101)  (  2, 99,102)  (  1, 62,100)  (  2, 99,102)
  0  0.2457E-01  0  0.2036E-01  0  0.2165E-01  0  0.2127E-01  0  0.2787E-01
   (  2,100,101)  (  2,110,105)  (  2, 55,106)  (  1, 59, 68)  (  2, 55,106)
  0  0.2564E-01  0  0.2294E-01  0  0.2558E-01  0  0.2376E-01  0  0.2796E-01
   (  2, 98,103)  (  2, 99,102)  (  2, 98,103)  (  2, 99,102)  (  2, 98,103)
  0  0.5244E-01  0  0.4432E-01  0  0.2924E-01  0  0.2228E-01  0  0.1880E-01
   (  2, 99,102)  (  2, 98,103)  (  2,117,108)  (  2,120,107)  (  2,119,108)
  0  0.2654E-01  0  0.2225E-01  0  0.1655E-01  0  0.1315E-01  0  0.2118E-01
   (  2,120,107)  (  2,122,105)  (  2,123,103)  (  2,124,102)  (  2, 55,106)
  0  0.2236E-01  0  0.3331E-01  0  0.3525E-01  0  0.4500E-01  0  0.4195E-01
   (  2, 88,106)  (  2,124,102)  (  2,123,104)  (  2,122,105)  (  2, 90,105)
  0  0.5215E-01  0  0.6547E-01  0  0.1100      0  0.1770      0  0.1620    
   (  2, 89,106)  (  2,124,102)  (  2, 89,106)  (  2,171, 25)  (  1,249,111)
  1 -0.3207E-01  0  0.1926E-01  0  0.1423E-01  0  0.1855E-01  0  0.2467E-01
   (  1,249,111)  (  1,249,109)  (  2,100,101)  (  2,109,106)  (  2,100,101)
  0  0.1982E-01  0  0.1809E-01  0  0.1686E-01  0  0.1088E-01  0  0.1553E-01
   (  2,107,106)  (  2,111,105)  (  2, 99,102)  (  2, 95,104)  (  2, 99,102)
  0  0.1119E-01  0  0.1139E-01  0  0.1060E-01  0  0.1156E-01  0  0.1527E-01
   (  2,109,106)  (  2,110,105)  (  2, 55,106)  (  2, 57, 99)  (  2, 55,106)
  0  0.1180E-01  0  0.1181E-01  0  0.1427E-01  0  0.1300E-01  0  0.1535E-01
   (  2,121,107)  (  2, 47, 85)  (  2, 57,106)  (  2, 59,105)  (  2, 57,106)
  0  0.3778E-01  0  0.3855E-01  0  0.9025E-01  0  0.1078      0  0.1411    
   (  1, 48, 88)  (  2, 89,106)  (  2, 55,106)  (  2, 58,105)  (  2, 55,106)
  0  0.7733E-01  0  0.5639E-01  0  0.5720E-01  0  0.3697E-01  0  0.6125E-01
   (  2, 90,105)  (  2, 88,106)  (  2, 98,103)  (  2, 99,102)  (  2, 98,103)
  0  0.6248E-01  0  0.6834E-01  0  0.7630E-01  0  0.5600E-01  0  0.6282E-01
   (  2, 99,102)  (  2,124,102)  (  2,123,103)  (  2,122,106)  (  2,124,102)
  0  0.8922E-01  0  0.1186      0  0.1155      0  0.6331E-01  0  0.1142    
   (  2,122,106)  (  1,206,112)  (  1,249,109)  (  1,248,112)  (  2,249,109)
  1 -0.2157E-01  0  0.1691E-01  0  0.1278E-01  0  0.1484E-01  0  0.1191E-01
   (  1,249,109)  (  1,249,111)  (  2,124,102)  (  1,243, 33)  (  2,124,102)
  0  0.1293E-01  0  0.9303E-02  0  0.1306E-01  0  0.1039E-01  0 -0.8985E-02
   (  2, 92,105)  (  2,111,105)  (  2, 56,106)  (  2,100,101)  (  2,100,101)
  0 -0.1022E-01  0  0.9051E-02  0 -0.1025E-01  0 -0.8585E-02  0  0.8504E-02
   (  2, 98,103)  (  2, 98,103)  (  2, 98,103)  (  2, 99,102)  (  2,250,108)
  0  0.1268E-01  0  0.1412E-01  0  0.1418E-01  0  0.1215E-01  0  0.9694E-02
   (  2,250,108)  (  1,248,112)  (  2,248,112)  (  1,249,111)  (  2,120,107)
  0  0.1931E-01  0  0.2150E-01  0  0.1900E-01  0  0.1839E-01  0  0.2291E-01
   (  2,240,105)  (  2,120,107)  (  1,236,108)  (  1,212,111)  (  1,213,110)
  0  0.2109E-01  0  0.2196E-01  0  0.1423E-01  0  0.1553E-01  0  0.1796E-01
   (  1,218,109)  (  1,217,110)  (  2,123,103)  (  1,208, 24)  (  2,100,101)
  0  0.1566E-01  0  0.3036E-01  0  0.3084E-01  0  0.3405E-01  0  0.3136E-01
   (  1,205, 26)  (  2,195, 26)  (  2,169, 28)  (  2,170, 25)  (  2,165, 26)
  0  0.3638E-01  0  0.2985E-01  0  0.2990E-01  0  0.4097E-01  0  0.5518E-01
   (  2,122,106)  (  2,100,101)  (  2,166, 31)  (  1,249,111)  (  2,100,101)
  1  0.1023E-01  0  0.1234E-01  0  0.6893E-02  0  0.1213E-01  0  0.1199E-01
   (  2,122,106)  (  1,249,111)  (  2,124,102)  (  2,122,106)  (  2,117,108)
  0  0.1459E-01  0  0.1059E-01  0  0.9709E-02  0  0.7544E-02  0  0.9272E-02
   (  2,122,105)  (  2,123,104)  (  2, 57,106)  (  2, 58,105)  (  2, 55,106)
  0  0.6419E-02  0  0.8454E-02  0  0.5223E-02  0  0.7818E-02  0  0.9821E-02
   (  2, 58,105)  (  2, 98,103)  (  2, 99,102)  (  2, 98,103)  (  2, 55,106)
  0  0.8591E-02  0  0.1042E-01  0  0.7878E-02  0  0.7362E-02  0  0.9424E-02
   (  2, 98,103)  (  2, 57,106)  (  2, 54, 70)  (  1, 53, 77)  (  2,121,107)
  0  0.3517E-01  0  0.5369E-01  0  0.7013E-01  0  0.7154E-01  0  0.7273E-01
   (  2, 88,106)  (  2,121,107)  (  2,110,105)  (  2, 88,106)  (  2, 56,106)
  0  0.6024E-01  0  0.3236E-01  0  0.2934E-01  0  0.1176E-01  0  0.2974E-01
   (  2,111,105)  (  2,109,106)  (  2,100,101)  (  2, 98,103)  (  2,100,101)
  0  0.2634E-01  0  0.3471E-01  0  0.5074E-01  0  0.8463E-01  0  0.6347E-01
   (  2, 99,102)  (  2, 55,106)  (  2, 99,102)  (  1,206,112)  (  2,184, 99)
  0  0.1455      0  0.2317      0  0.9200E-01  0  0.6071E-01  0  0.7831E-01
   (  2,186, 92)  (  1,174,103)  (  2, 89,106)  (  1,250,108)  (  1,249,111)
  1 -0.1052E-01  0  0.8354E-02  0  0.5292E-02  0  0.6527E-02  0  0.7269E-02
   (  1,249,111)  (  1,249,111)  (  2, 88,106)  (  2,122,106)  (  2, 88,106)
  0  0.7832E-02  0  0.4658E-02  0  0.5354E-02  0  0.3360E-02  0  0.4119E-02
   (  2,122,105)  (  2,123,104)  (  2, 89,106)  (  2,123,104)  (  2, 55,106)
  0  0.2644E-02  0  0.4764E-02  0  0.3141E-02  0  0.3731E-02  0  0.3429E-02
   (  2, 58,102)  (  2, 98,103)  (  2, 99,102)  (  2, 98,103)  (  2, 99,102)
  0  0.3619E-02  0  0.4285E-02  0  0.3133E-02  0  0.2808E-02  0  0.4537E-02
   (  2, 70, 52)  (  2, 56,106)  (  1,217,110)  (  2,122,105)  (  2, 57,106)
  0  0.9047E-02  0  0.1967E-01  0  0.3017E-01  0  0.2874E-01  0  0.2825E-01
   (  2,124,102)  (  2, 99,102)  (  2, 55,106)  (  2, 58,105)  (  2, 55,106)
  0  0.4428E-01  0  0.7944E-01  0  0.7906E-01  0  0.7409E-01  0  0.5198E-01
   (  2,111,105)  (  2,107,106)  (  2,111,105)  (  2,124,102)  (  2,100,101)
  0  0.5974E-01  0  0.8100E-01  0  0.7171E-01  0  0.2590E-01  0  0.2046E-01
   (  2, 98,103)  (  2,100,101)  (  2, 99,102)  (  2, 55,106)  (  2, 92,105)
  0  0.1156E-01  0  0.8332E-02  0  0.8630E-02  0  0.1517E-01  0  0.1145E-01
   (  2, 89,106)  (  2, 92,105)  (  2,193, 28)  (  2,192, 23)  (  2,195, 23)
  1 -0.4800E-02  0  0.5345E-02  0  0.2813E-02  0  0.3639E-02  0  0.3504E-02
   (  1,249,109)  (  1,249,111)  (  1,248,112)  (  2,122,106)  (  2,117,108)
  0  0.4443E-02  0  0.2752E-02  0  0.2443E-02  0  0.2441E-02  0  0.2317E-02
   (  2,122,106)  (  2,123,104)  (  2,122,105)  (  2,247, 50)  (  2, 55,106)
  0  0.2324E-02  0 -0.2209E-02  0 -0.2718E-02  0 -0.3063E-02  0 -0.3463E-02
   (  2,225, 25)  (  2,122,105)  (  2, 98,103)  (  2, 99,102)  (  2, 98,103)
  0  0.2842E-02  0 -0.2556E-02  0  0.2440E-02  0 -0.2030E-02  0  0.1902E-02
   (  1,248,112)  (  2,120,107)  (  1,217,110)  (  2,120,107)  (  1,206,112)
  0  0.4039E-02  0  0.4561E-02  0  0.4798E-02  0  0.3583E-02  0  0.2318E-02
   (  1,214,110)  (  1,212,111)  (  1,206,112)  (  1,207,111)  (  2,123,103)
  0  0.2540E-02  0  0.2745E-02  0  0.2572E-02  0  0.3047E-02  0  0.3114E-02
   (  2,237, 26)  (  2,107,106)  (  2,110,105)  (  2,124,102)  (  2,111,105)
  0  0.5916E-02  0  0.5949E-02  0  0.6504E-02  0  0.8083E-02  0  0.2001E-01
   (  2,238, 37)  (  2,111,105)  (  2,100,101)  (  2,124,102)  (  2,100,101)
  0  0.1501E-01  0  0.1606E-01  0  0.2648E-01  0  0.5361E-01  0  0.4238E-01
   (  2, 99,102)  (  2,100,101)  (  2, 55,106)  (  2, 99,102)  (  2,100,101)
  1 -0.7207E-02  0  0.6296E-02  0  0.3015E-02  0  0.3298E-02  0  0.2288E-02
   (  2,100,101)  (  2,100,101)  (  2, 99,102)  (  2,249,109)  (  2,100,101)
  0  0.3017E-02  0  0.1738E-02  0  0.2027E-02  0  0.1852E-02  0 -0.1663E-02
   (  1,249,111)  (  1,250,108)  (  2, 89,106)  (  2,122,105)  (  2,122,106)
  0  0.1771E-02  0  0.1247E-02  0 -0.1184E-02  0  0.1353E-02  0  0.1646E-02
   (  2,122,105)  (  2,123,103)  (  2,123,104)  (  2,218,109)  (  2,214,110)
  0  0.1657E-02  0  0.1436E-02  0  0.1538E-02  0  0.1354E-02  0  0.1612E-02
   (  2, 98,103)  (  1,206,112)  (  2,248,112)  (  2,247,111)  (  2,121,107)
  0  0.3816E-02  0  0.3740E-02  0  0.5511E-02  0  0.8803E-02  0  0.7754E-02
   (  2,239, 30)  (  2, 99,102)  (  2,234, 28)  (  2,228, 24)  (  2,237, 26)
  0  0.6091E-02  0  0.5807E-02  0  0.5524E-02  0  0.8315E-02  0  0.8193E-02
   (  2,226, 29)  (  1,217,110)  (  1,212,111)  (  2,199, 63)  (  1,207,111)
  0  0.9151E-02  0  0.1102E-01  0  0.1006E-01  0  0.7637E-02  0  0.6176E-02
   (  2,188,102)  (  2,179,105)  (  2,185,103)  (  2,108,106)  (  2,110,105)
  0  0.6725E-02  0  0.8246E-02  0  0.1025E-01  0  0.8645E-02  0  0.8773E-02
   (  2, 89,106)  (  2,124,102)  (  1,249,111)  (  1,250,108)  (  1,249,111)
  1 -0.2782E-02  0  0.2675E-02  0  0.1277E-02  0  0.2048E-02  0  0.2930E-02
   (  2,100,101)  (  1,249,111)  (  2,131, 98)  (  2, 99,102)  (  2,100,101)
  0  0.2363E-02  0  0.1779E-02  0  0.2088E-02  0  0.2024E-02  0  0.1942E-02
   (  2, 99,102)  (  2,100,101)  (  2,124,102)  (  2, 56,106)  (  1, 58,101)
  0  0.2236E-02  0  0.1466E-02  0  0.1630E-02  0  0.1567E-02  0  0.1979E-02
   (  2, 55,106)  (  2,123,103)  (  2, 55,106)  (  1, 73, 51)  (  2, 76, 49)
  0  0.2154E-02  0  0.1631E-02  0  0.1552E-02  0  0.1320E-02  0  0.1703E-02
   (  2, 98,103)  (  2, 99,102)  (  2, 57,106)  (  2,119,108)  (  2,120,107)
  0  0.5406E-02  0  0.3901E-02  0  0.4278E-02  0  0.5055E-02  0  0.2266E-02
   (  2, 98,103)  (  2,120,107)  (  2, 55,106)  (  2, 99,102)  (  2, 98,103)
  0  0.1614E-02  0  0.2266E-02  0  0.2091E-02  0  0.1637E-02  0  0.1891E-02
   (  2,111,105)  (  2, 98,103)  (  2,111,105)  (  2, 90,105)  (  2,123,103)
  0  0.2497E-02  0  0.5463E-02  0  0.7189E-02  0  0.7997E-02  0  0.8033E-02
   (  2,110,105)  (  2,177, 97)  (  1,205,112)  (  2,100,101)  (  2, 89,106)
  0  0.1087E-01  0  0.2521E-01  0  0.2692E-01  0  0.2429E-01  0  0.2515E-01
   (  2, 90,105)  (  2,125,101)  (  1,249,109)  (  1,250,108)  (  1,249,111)
  1 -0.2523E-02  0  0.2303E-02  0  0.1346E-02  0  0.1686E-02  0  0.1992E-02
   (  1,249,111)  (  2,249,111)  (  2, 88,106)  (  2, 99,102)  (  2,100,101)
  0  0.1687E-02  0  0.1320E-02  0  0.1431E-02  0  0.1032E-02  0  0.1012E-02
   (  2, 99,102)  (  2,100,101)  (  2, 89,106)  (  2,100,101)  (  2, 88,106)
  0  0.7358E-03  0  0.5571E-03  0  0.9708E-03  0  0.6836E-03  0  0.1062E-02
   (  2, 55,106)  (  2,110,105)  (  2, 55,106)  (  2, 58,105)  (  2, 55,106)
  0  0.8034E-03  0  0.8618E-03  0  0.1122E-02  0  0.9328E-03  0  0.1396E-02
   (  2,121,107)  (  2, 51, 78)  (  2, 57,106)  (  2,100,101)  (  2, 56,106)
  0  0.1555E-02  0  0.2209E-02  0  0.2560E-02  0  0.3289E-02  0  0.4936E-02
   (  1, 47, 85)  (  2, 99,102)  (  2, 98,103)  (  2, 99,102)  (  2, 98,103)
  0  0.4715E-02  0  0.4795E-02  0  0.3654E-02  0  0.3867E-02  0  0.3869E-02
   (  2, 99,102)  (  2, 98,103)  (  2, 56,106)  (  2, 98,103)  (  2, 56,106)
  0  0.3719E-02  0  0.4560E-02  0  0.3502E-02  0  0.3561E-02  0  0.2875E-02
   (  2,122,105)  (  2,124,102)  (  2, 89,106)  (  2,124,102)  (  2,100,101)
  0  0.3070E-02  0  0.2720E-02  0  0.4004E-02  0  0.5143E-02  0  0.3915E-02
   (  2, 90, 39)  (  2,163, 29)  (  2,165, 30)  (  2,169, 28)  (  2,205, 26)
  1 -0.1318E-02  0  0.1477E-02  0  0.8415E-03  0  0.1070E-02  0  0.9480E-03
   (  1,249,111)  (  1,249,109)  (  1,248,112)  (  2,122,106)  (  2,100,101)
  0  0.8870E-03  0  0.6200E-03  0  0.8956E-03  0  0.8303E-03  0  0.7017E-03
   (  2,122,105)  (  2,100,101)  (  2, 99,102)  (  2,100,101)  (  2, 99,102)
  0  0.7309E-03  0  0.5590E-03  0  0.6245E-03  0 -0.7084E-03  0  0.8053E-03
   (  2,100,101)  (  1,245, 95)  (  2, 88,106)  (  2, 88,106)  (  1,206,112)
  0  0.8062E-03  0 -0.9370E-03  0 -0.6572E-03  0  0.4945E-03  0  0.5653E-03
   (  1,212,111)  (  2,120,107)  (  2,117,108)  (  2,207,111)  (  1,213,110)
  0  0.1866E-02  0  0.2442E-02  0  0.1992E-02  0  0.1524E-02  0  0.1517E-02
   (  1,218,109)  (  1,217,110)  (  1,212,111)  (  1,206,112)  (  2,111,105)
  0  0.1109E-02  0  0.8220E-03  0  0.7215E-03  0  0.1667E-02  0  0.2489E-02
   (  2,108,106)  (  2, 98,103)  (  2, 99,102)  (  2, 98,103)  (  2, 99,102)
  0  0.2472E-02  0  0.2293E-02  0  0.2667E-02  0  0.4321E-02  0  0.4366E-02
   (  2, 98,103)  (  2,124,102)  (  2,111,105)  (  2,109,106)  (  2,124,102)
  0  0.6879E-02  0  0.1770E-01  0  0.1441E-01  0  0.1693E-01  0  0.1375E-01
   (  2,123,104)  (  2,124,102)  (  2, 66,104)  (  2, 57,106)  (  2,124,102)
  1 -0.1030E-02  0  0.1223E-02  0  0.8745E-03  0  0.9593E-03  0  0.6230E-03
   (  1,249,111)  (  1,249,111)  (  2,124,102)  (  2,122,106)  (  2,124,102)
  0  0.6455E-03  0  0.5147E-03  0  0.4843E-03  0 -0.4788E-03  0  0.4540E-03
   (  2,122,105)  (  2,100,101)  (  2,124,102)  (  2,124,102)  (  2, 99,102)
  0  0.3449E-03  0  0.3443E-03  0 -0.3118E-03  0 -0.3756E-03  0  0.5719E-03
   (  2,100,101)  (  2, 99,102)  (  2,123,104)  (  2, 98,103)  (  2, 98,103)
  0 -0.5021E-03  0  0.4420E-03  0  0.5522E-03  0  0.4311E-03  0  0.4371E-03
   (  2, 98,103)  (  2,249,111)  (  1,248,112)  (  2,241,112)  (  2,121,107)
  0  0.1056E-02  0  0.9830E-03  0  0.9660E-03  0  0.1194E-02  0  0.1974E-02
   (  1,241,105)  (  2,121,107)  (  1,236,108)  (  1,238,105)  (  1,217,110)
  0  0.2135E-02  0  0.2505E-02  0  0.3061E-02  0  0.2765E-02  0  0.2015E-02
   (  1,212,111)  (  2,213,110)  (  2,209,111)  (  1,217,110)  (  1,212,111)
  0  0.1494E-02  0  0.2293E-02  0  0.2956E-02  0  0.2305E-02  0  0.1751E-02
   (  2,188, 70)  (  2,176, 97)  (  2,192, 23)  (  2,170, 31)  (  2, 92,105)
  0  0.2007E-02  0  0.1862E-02  0  0.1723E-02  0  0.2692E-02  0  0.3529E-02
   (  2,176, 26)  (  2,100,101)  (  2, 93,104)  (  2,100,101)  (  2, 66,104)
  1  0.5602E-03  0  0.6583E-03  0  0.4991E-03  0  0.6390E-03  0  0.5394E-03
   (  2,122,106)  (  2,124,102)  (  2,122,106)  (  1,249,111)  (  2,124,102)
  0  0.5830E-03  0  0.6016E-03  0  0.4848E-03  0  0.6552E-03  0  0.5337E-03
   (  2,122,105)  (  2,100,101)  (  2, 57,106)  (  2,100,101)  (  2, 99,102)
  0  0.4792E-03  0  0.5805E-03  0  0.3663E-03  0  0.4093E-03  0  0.7615E-03
   (  2,100,101)  (  2, 99,102)  (  2, 55,106)  (  2, 99,102)  (  2, 98,103)
  0  0.4305E-03  0  0.5315E-03  0  0.4686E-03  0  0.3923E-03  0  0.4298E-03
   (  2, 75, 48)  (  2, 98,103)  (  2, 89,106)  (  2, 92,105)  (  2, 89,106)
  0  0.6731E-03  0  0.6822E-03  0  0.1003E-02  0  0.6735E-03  0  0.6953E-03
   (  2, 89,106)  (  2, 92,105)  (  2, 88,106)  (  2,120,107)  (  2,110,105)
  0  0.7786E-03  0  0.7357E-03  0  0.6125E-03  0  0.3134E-03  0  0.3926E-03
   (  2,120,107)  (  2,117,108)  (  2,120,107)  (  2,117,108)  (  2, 56,106)
  0  0.3913E-03  0  0.6906E-03  0  0.9293E-03  0  0.1022E-02  0  0.1529E-02
   (  2,122,106)  (  2, 55,106)  (  2,111,105)  (  2, 55,106)  (  2,100,101)
  0  0.2055E-02  0  0.2803E-02  0  0.3212E-02  0  0.3410E-02  0  0.4566E-02
   (  2,180,100)  (  2,177,101)  (  1,206,112)  (  2,100,101)  (  1,248,112)
  1  0.7105E-03  0  0.3655E-03  0  0.4498E-03  0  0.4428E-03  0  0.4772E-03
   (  1,249,111)  (  1,248,112)  (  1,249,109)  (  2,122,106)  (  2,124,102)
  0  0.4264E-03  0  0.3145E-03  0  0.2390E-03  0  0.3126E-03  0  0.2655E-03
   (  2,122,105)  (  2,100,101)  (  2,124,102)  (  2,100,101)  (  2,124,102)
  0  0.1998E-03  0  0.2644E-03  0  0.1729E-03  0  0.2311E-03  0  0.3549E-03
   (  2,100,101)  (  2, 99,102)  (  2,124,102)  (  2, 99,102)  (  2, 98,103)
  0  0.2128E-03  0  0.2405E-03  0  0.2736E-03  0  0.1802E-03  0  0.3139E-03
   (  2, 71, 57)  (  2, 63, 61)  (  2, 57,106)  (  2, 60,105)  (  2, 98,103)
  0  0.7910E-03  0  0.1543E-02  0  0.1564E-02  0  0.1309E-02  0  0.1741E-02
   (  2, 57,106)  (  2, 58,105)  (  2, 55,106)  (  2, 98,103)  (  2, 55,106)
  0  0.1977E-02  0  0.1569E-02  0  0.2377E-02  0  0.2625E-02  0  0.2911E-02
   (  2, 89,106)  (  2, 99,102)  (  2,111,105)  (  2, 99,102)  (  2, 87, 42)
  0  0.2654E-02  0  0.1992E-02  0  0.1422E-02  0  0.7327E-03  0  0.5348E-03
   (  2,110,105)  (  2, 55,106)  (  2,110,105)  (  2,125,101)  (  1,206,112)
  0  0.1043E-02  0  0.1575E-02  0  0.2028E-02  0  0.2901E-02  0  0.2063E-02
   (  2,131, 36)  (  2,192, 42)  (  2,211, 26)  (  1,249,109)  (  1,206,112)
  1  0.5200E-03  0  0.3071E-03  0  0.3951E-03  0  0.2700E-03  0  0.2509E-03
   (  1,249,111)  (  1,248,112)  (  2,249,110)  (  1,248,112)  (  2,124,102)
  0  0.2333E-03  0  0.1840E-03  0  0.1499E-03  0  0.2014E-03  0  0.1869E-03
   (  2,122,105)  (  2,100,101)  (  2,122,105)  (  2,100,101)  (  2,124,102)
  0  0.1569E-03  0  0.1772E-03  0 -0.1775E-03  0 -0.1534E-03  0 -0.1926E-03
   (  1,247, 93)  (  2, 99,102)  (  2, 99,102)  (  2,124,102)  (  2,121,107)
  0 -0.1977E-03  0 -0.2006E-03  0  0.1898E-03  0 -0.1204E-03  0  0.1576E-03
   (  2, 98,103)  (  2,120,107)  (  1,217,110)  (  2,120,107)  (  2, 98,103)
  0  0.2911E-03  0  0.2438E-03  0  0.2819E-03  0  0.2752E-03  0  0.2441E-03
   (  2,237, 26)  (  2,226, 27)  (  2,172, 26)  (  1,207,111)  (  2,197, 27)
  0  0.4157E-03  0  0.2974E-03  0  0.1994E-03  0  0.1588E-03  0  0.1681E-03
   (  2,201, 25)  (  1,217,110)  (  2,111,105)  (  2, 99,102)  (  2,111,105)
  0  0.2858E-03  0  0.3006E-03  0  0.5140E-03  0  0.8775E-03  0  0.1151E-02
   (  2,122,105)  (  2, 89,106)  (  2,110,105)  (  2,109,106)  (  2,110,105)
  0  0.9612E-03  0  0.1362E-02  0  0.1337E-02  0  0.1857E-02  0  0.2655E-02
   (  2,108,106)  (  2, 89,106)  (  2, 92,105)  (  2, 89,106)  (  1,249,111)
  1 -0.2423E-03  0  0.3194E-03  0  0.1439E-03  0  0.1632E-03  0  0.1593E-03
   (  1,249,111)  (  1,249,109)  (  1,250,108)  (  2, 66,104)  (  2,124,102)
  0  0.2436E-03  0  0.1469E-03  0  0.2080E-03  0  0.1205E-03  0  0.1727E-03
   (  2, 55,106)  (  2, 58,104)  (  2, 56,106)  (  2, 58,104)  (  2, 55,106)
  0  0.8938E-04  0  0.8162E-04  0 -0.7700E-04  0 -0.1030E-03  0 -0.1210E-03
   (  2, 58,105)  (  2, 55,106)  (  2,121,107)  (  2,119,108)  (  2,120,107)
  0  0.9173E-04  0  0.9967E-04  0  0.1297E-03  0  0.1015E-03  0  0.1659E-03
   (  2,121,107)  (  2,218,109)  (  1,217,110)  (  2, 99,102)  (  2, 98,103)
  0  0.3286E-03  0  0.5162E-03  0  0.4866E-03  0  0.8629E-03  0  0.1158E-02
   (  2,247,112)  (  2, 98,103)  (  2, 97,104)  (  2, 98,103)  (  1,239,111)
  0  0.9745E-03  0  0.1289E-02  0  0.1373E-02  0  0.1615E-02  0  0.1970E-02
   (  2, 89,106)  (  2, 99,102)  (  2,100,101)  (  2,213,110)  (  2,100,101)
  0  0.1826E-02  0  0.2311E-02  0  0.2096E-02  0  0.1465E-02  0  0.9197E-03
   (  1,206,112)  (  2,100,101)  (  2,190, 38)  (  2,111,105)  (  2,123,104)
  0  0.1068E-02  0  0.5406E-03  0  0.2951E-03  0  0.1938E-03  0  0.8689E-04
   (  2,122,105)  (  2,119,108)  (  2,169, 25)  (  2, 91,105)  (  2, 88,106)
  1  0.6570E-04  0  0.1534E-03  0  0.7957E-04  0  0.9781E-04  0  0.9298E-04
   (  1,248,112)  (  1,249,109)  (  1,250,108)  (  1,249,111)  (  2,124,102)
  0  0.1504E-03  0  0.9650E-04  0  0.1349E-03  0  0.8621E-04  0  0.1214E-03
   (  2, 55,106)  (  2, 58,104)  (  2, 56,106)  (  2, 58,104)  (  2, 55,106)
  0  0.6968E-04  0  0.6853E-04  0  0.6850E-04  0  0.6526E-04  0  0.9683E-04
   (  2, 58,105)  (  2,120,107)  (  2, 55,106)  (  2,120,107)  (  2, 55,106)
  0  0.8308E-04  0  0.8525E-04  0  0.8284E-04  0  0.7593E-04  0  0.1043E-03
   (  2, 75, 49)  (  2, 73, 49)  (  1, 72, 50)  (  2, 99,102)  (  2, 98,103)
  0  0.2370E-03  0  0.2977E-03  0  0.1856E-03  0  0.2126E-03  0  0.1692E-03
   (  2, 99,102)  (  2, 98,103)  (  2, 99,102)  (  2, 98,103)  (  2, 99,102)
  0  0.9052E-04  0  0.1290E-03  0  0.1393E-03  0  0.1311E-03  0  0.1867E-03
   (  2,110,105)  (  2, 99,102)  (  2,100,101)  (  2, 57,101)  (  2,100,101)
  0  0.1934E-03  0  0.2414E-03  0  0.2027E-03  0  0.1533E-03  0  0.1877E-03
   (  2,111,105)  (  2,100,101)  (  2,111,105)  (  2,109,106)  (  2, 90,105)
  0  0.3618E-03  0  0.3178E-03  0  0.5085E-03  0  0.8239E-03  0  0.1143E-02
   (  2, 89,106)  (  2, 90,105)  (  2, 88,106)  (  2, 91,105)  (  2, 88,106)
  1 -0.1307E-03  0  0.1237E-03  0  0.7244E-04  0 -0.6848E-04  0  0.7569E-04
   (  2, 88,106)  (  1,249,109)  (  2, 89,106)  (  2, 88,106)  (  2, 88,106)
  0  0.7742E-04  0  0.4898E-04  0  0.8037E-04  0  0.4722E-04  0  0.6767E-04
[...]
       1.2853E+05  1.2845E+05  1.2836E+05  1.2828E+05  1.2820E+05  1.2812E+05  1.2804E+05  1.2797E+05  1.2789E+05  1.2782E+05
       1.2776E+05  1.2769E+05  1.2763E+05  1.2757E+05  1.2751E+05  1.2745E+05  1.2740E+05  1.2735E+05  1.2730E+05  1.2725E+05
       1.2720E+05  1.2716E+05  1.2712E+05  1.2708E+05  1.2704E+05  1.2700E+05  1.2696E+05  1.2693E+05  1.2690E+05  1.2687E+05
       1.2684E+05  1.2681E+05  1.2678E+05  1.2676E+05  1.2673E+05  1.2671E+05  1.2669E+05  1.2667E+05  1.2665E+05  1.2663E+05
       1.2662E+05  1.2660E+05  1.2659E+05  1.2658E+05  1.2657E+05  1.2656E+05  1.2655E+05  1.2654E+05  1.2654E+05  1.2654E+05
       1.2654E+05  1.2654E+05  1.2654E+05  1.2654E+05  1.2654E+05  1.2655E+05  1.2655E+05  1.2656E+05  1.2656E+05  1.2656E+05
       1.2657E+05  1.2657E+05 -1000.0     -1000.0     -1000.0     -1000.0     -1000.0     -1000.0     -1000.0     -1000.0    
      -1000.0     -1000.0     -1000.0     -1000.0     -1000.0     -1000.0     -1000.0     -1000.0     -1000.0     -1000.0    
      -1000.0     -1000.0     -1000.0     -1000.0     -1000.0     -1000.0     -1000.0     -1000.0     -1000.0     -1000.0    
      -1000.0     -1000.0     -1000.0     -1000.0     -1000.0    
 242  -1000.0     -1000.0     -1000.0     -1000.0     -1000.0     -1000.0     -1000.0     -1000.0     -1000.0     -1000.0    
      -1000.0     -1000.0     -1000.0     -1000.0     -1000.0     -1000.0     -1000.0     -1000.0     -1000.0     -1000.0    
      -1000.0     -1000.0     -1000.0     -1000.0     -1000.0     -1000.0     -1000.0     -1000.0     -1000.0     -1000.0    
      -1000.0     -1000.0      1.2964E+05  1.2962E+05  1.2958E+05  1.2954E+05  1.2950E+05  1.2944E+05  1.2939E+05  1.2933E+05
       1.2926E+05  1.2920E+05  1.2912E+05  1.2905E+05  1.2897E+05  1.2889E+05  1.2880E+05  1.2872E+05  1.2863E+05  1.2854E+05
       1.2844E+05  1.2835E+05  1.2826E+05  1.2817E+05  1.2809E+05  1.2800E+05  1.2792E+05  1.2784E+05  1.2777E+05  1.2770E+05
       1.2763E+05  1.2756E+05  1.2750E+05  1.2743E+05  1.2737E+05  1.2732E+05  1.2726E+05  1.2721E+05  1.2716E+05  1.2711E+05
       1.2706E+05  1.2702E+05  1.2697E+05  1.2693E+05  1.2689E+05  1.2686E+05  1.2682E+05  1.2678E+05  1.2675E+05  1.2672E+05
       1.2669E+05  1.2666E+05  1.2663E+05  1.2661E+05  1.2659E+05  1.2656E+05  1.2654E+05  1.2652E+05  1.2650E+05  1.2649E+05
       1.2647E+05  1.2646E+05  1.2644E+05  1.2643E+05  1.2642E+05  1.2641E+05  1.2641E+05  1.2640E+05  1.2640E+05  1.2640E+05
       1.2640E+05  1.2640E+05  1.2640E+05  1.2641E+05  1.2642E+05  1.2642E+05  1.2643E+05  1.2644E+05  1.2645E+05  1.2646E+05
       1.2646E+05  1.2646E+05 -1000.0     -1000.0     -1000.0     -1000.0     -1000.0     -1000.0     -1000.0     -1000.0    
      -1000.0     -1000.0     -1000.0     -1000.0     -1000.0     -1000.0     -1000.0     -1000.0     -1000.0     -1000.0    
      -1000.0     -1000.0     -1000.0     -1000.0     -1000.0     -1000.0     -1000.0     -1000.0     -1000.0     -1000.0    
      -1000.0     -1000.0     -1000.0     -1000.0     -1000.0    
 243  -1000.0     -1000.0     -1000.0     -1000.0     -1000.0     -1000.0     -1000.0     -1000.0     -1000.0     -1000.0    
      -1000.0     -1000.0     -1000.0     -1000.0     -1000.0     -1000.0     -1000.0     -1000.0     -1000.0     -1000.0    
      -1000.0     -1000.0     -1000.0     -1000.0     -1000.0     -1000.0     -1000.0     -1000.0     -1000.0     -1000.0    
      -1000.0     -1000.0      1.2962E+05  1.2959E+05  1.2955E+05  1.2951E+05  1.2946E+05  1.2941E+05  1.2935E+05  1.2929E+05
       1.2922E+05  1.2915E+05  1.2908E+05  1.2900E+05  1.2891E+05  1.2883E+05  1.2874E+05  1.2864E+05  1.2855E+05  1.2845E+05
       1.2835E+05  1.2825E+05  1.2816E+05  1.2806E+05  1.2797E+05  1.2788E+05  1.2780E+05  1.2772E+05  1.2764E+05  1.2757E+05
       1.2749E+05  1.2743E+05  1.2736E+05  1.2730E+05  1.2724E+05  1.2718E+05  1.2712E+05  1.2707E+05  1.2702E+05  1.2697E+05
       1.2692E+05  1.2687E+05  1.2683E+05  1.2679E+05  1.2675E+05  1.2671E+05  1.2667E+05  1.2664E+05  1.2660E+05  1.2657E+05
       1.2654E+05  1.2651E+05  1.2649E+05  1.2646E+05  1.2644E+05  1.2641E+05  1.2639E+05  1.2637E+05  1.2636E+05  1.2634E+05
       1.2632E+05  1.2631E+05  1.2630E+05  1.2629E+05  1.2628E+05  1.2627E+05  1.2626E+05  1.2626E+05  1.2626E+05  1.2626E+05
       1.2626E+05  1.2626E+05  1.2627E+05  1.2628E+05  1.2629E+05  1.2630E+05  1.2631E+05  1.2633E+05  1.2634E+05  1.2635E+05
       1.2636E+05  1.2637E+05 -1000.0     -1000.0     -1000.0     -1000.0     -1000.0     -1000.0     -1000.0     -1000.0    
      -1000.0     -1000.0     -1000.0     -1000.0     -1000.0     -1000.0     -1000.0     -1000.0     -1000.0     -1000.0    
      -1000.0     -1000.0     -1000.0     -1000.0     -1000.0     -1000.0     -1000.0     -1000.0     -1000.0     -1000.0    
      -1000.0     -1000.0     -1000.0     -1000.0     -1000.0    
 244  -1000.0     -1000.0     -1000.0     -1000.0     -1000.0     -1000.0     -1000.0     -1000.0     -1000.0     -1000.0    
      -1000.0     -1000.0     -1000.0     -1000.0     -1000.0     -1000.0     -1000.0     -1000.0     -1000.0     -1000.0    
      -1000.0     -1000.0     -1000.0     -1000.0     -1000.0     -1000.0     -1000.0     -1000.0     -1000.0     -1000.0    
      -1000.0     -1000.0     -1000.0      1.2956E+05  1.2953E+05  1.2948E+05  1.2943E+05  1.2938E+05  1.2932E+05  1.2925E+05
       1.2918E+05  1.2911E+05  1.2903E+05  1.2895E+05  1.2886E+05  1.2877E+05  1.2867E+05  1.2857E+05  1.2847E+05  1.2837E+05
       1.2826E+05  1.2815E+05  1.2805E+05  1.2795E+05  1.2785E+05  1.2776E+05  1.2767E+05  1.2759E+05  1.2751E+05  1.2743E+05
       1.2736E+05  1.2729E+05  1.2722E+05  1.2716E+05  1.2709E+05  1.2703E+05  1.2698E+05  1.2692E+05  1.2687E+05  1.2682E+05
       1.2677E+05  1.2673E+05  1.2668E+05  1.2664E+05  1.2660E+05  1.2656E+05  1.2652E+05  1.2649E+05  1.2646E+05  1.2642E+05
       1.2639E+05  1.2636E+05  1.2634E+05  1.2631E+05  1.2629E+05  1.2626E+05  1.2624E+05  1.2622E+05  1.2621E+05  1.2619E+05
       1.2617E+05  1.2616E+05  1.2615E+05  1.2614E+05  1.2613E+05  1.2612E+05  1.2612E+05  1.2611E+05  1.2611E+05  1.2611E+05
       1.2612E+05  1.2612E+05  1.2613E+05  1.2614E+05  1.2616E+05  1.2617E+05  1.2619E+05  1.2621E+05  1.2623E+05  1.2625E+05
       1.2626E+05  1.2627E+05 -1000.0     -1000.0     -1000.0     -1000.0     -1000.0     -1000.0     -1000.0     -1000.0    
      -1000.0     -1000.0     -1000.0     -1000.0     -1000.0     -1000.0     -1000.0     -1000.0     -1000.0     -1000.0    
      -1000.0     -1000.0     -1000.0     -1000.0     -1000.0     -1000.0     -1000.0     -1000.0     -1000.0     -1000.0    
      -1000.0     -1000.0     -1000.0     -1000.0     -1000.0    
 245  -1000.0     -1000.0     -1000.0     -1000.0     -1000.0     -1000.0     -1000.0     -1000.0     -1000.0     -1000.0    
      -1000.0     -1000.0     -1000.0     -1000.0     -1000.0     -1000.0     -1000.0     -1000.0     -1000.0     -1000.0    
      -1000.0     -1000.0     -1000.0     -1000.0     -1000.0     -1000.0     -1000.0     -1000.0     -1000.0     -1000.0    
      -1000.0     -1000.0     -1000.0     -1000.0     -1000.0      1.2945E+05  1.2941E+05  1.2936E+05  1.2928E+05  1.2922E+05
       1.2915E+05  1.2907E+05  1.2899E+05  1.2890E+05  1.2881E+05  1.2872E+05  1.2861E+05  1.2851E+05  1.2840E+05  1.2828E+05
       1.2817E+05  1.2805E+05  1.2794E+05  1.2783E+05  1.2773E+05  1.2763E+05  1.2754E+05  1.2746E+05  1.2737E+05  1.2729E+05
       1.2722E+05  1.2715E+05  1.2708E+05  1.2701E+05  1.2695E+05  1.2689E+05  1.2683E+05  1.2678E+05  1.2672E+05  1.2667E+05
       1.2662E+05  1.2658E+05  1.2653E+05  1.2649E+05  1.2645E+05  1.2641E+05  1.2637E+05  1.2634E+05  1.2630E+05  1.2627E+05
       1.2624E+05  1.2621E+05  1.2619E+05  1.2616E+05  1.2614E+05  1.2611E+05  1.2609E+05  1.2607E+05  1.2605E+05  1.2604E+05
       1.2602E+05  1.2601E+05  1.2600E+05  1.2599E+05  1.2598E+05  1.2597E+05  1.2597E+05  1.2596E+05  1.2596E+05  1.2597E+05
       1.2597E+05  1.2598E+05  1.2599E+05  1.2600E+05  1.2602E+05  1.2605E+05  1.2607E+05  1.2610E+05  1.2613E+05  1.2615E+05
       1.2617E+05  1.2618E+05 -1000.0     -1000.0     -1000.0     -1000.0     -1000.0     -1000.0     -1000.0     -1000.0    
      -1000.0     -1000.0     -1000.0     -1000.0     -1000.0     -1000.0     -1000.0     -1000.0     -1000.0     -1000.0    
      -1000.0     -1000.0     -1000.0     -1000.0     -1000.0     -1000.0     -1000.0     -1000.0     -1000.0     -1000.0    
      -1000.0     -1000.0     -1000.0     -1000.0     -1000.0    
 246  -1000.0     -1000.0     -1000.0     -1000.0     -1000.0     -1000.0     -1000.0     -1000.0     -1000.0     -1000.0    
      -1000.0     -1000.0     -1000.0     -1000.0     -1000.0     -1000.0     -1000.0     -1000.0     -1000.0     -1000.0    
      -1000.0     -1000.0     -1000.0     -1000.0     -1000.0     -1000.0     -1000.0     -1000.0     -1000.0     -1000.0    
      -1000.0     -1000.0     -1000.0     -1000.0     -1000.0     -1000.0     -1000.0     -1000.0      1.2924E+05  1.2920E+05
       1.2913E+05  1.2903E+05  1.2895E+05  1.2886E+05  1.2876E+05  1.2867E+05  1.2856E+05  1.2845E+05  1.2832E+05  1.2820E+05
       1.2807E+05  1.2794E+05  1.2782E+05  1.2771E+05  1.2760E+05  1.2750E+05  1.2741E+05  1.2732E+05  1.2723E+05  1.2715E+05
       1.2707E+05  1.2700E+05  1.2693E+05  1.2687E+05  1.2680E+05  1.2674E+05  1.2668E+05  1.2663E+05  1.2657E+05  1.2652E+05
       1.2647E+05  1.2643E+05  1.2638E+05  1.2634E+05  1.2630E+05  1.2626E+05  1.2622E+05  1.2618E+05  1.2615E+05  1.2612E+05
       1.2609E+05  1.2606E+05  1.2603E+05  1.2600E+05  1.2598E+05  1.2596E+05  1.2594E+05  1.2592E+05  1.2590E+05  1.2588E+05
       1.2587E+05  1.2585E+05  1.2584E+05  1.2583E+05  1.2582E+05  1.2582E+05  1.2581E+05  1.2581E+05  1.2581E+05  1.2582E+05
       1.2582E+05  1.2583E+05  1.2584E+05  1.2586E+05  1.2589E+05  1.2591E+05  1.2595E+05  1.2599E+05  1.2603E+05  1.2606E+05
       1.2609E+05  1.2611E+05 -1000.0     -1000.0     -1000.0     -1000.0     -1000.0     -1000.0     -1000.0     -1000.0    
      -1000.0     -1000.0     -1000.0     -1000.0     -1000.0     -1000.0     -1000.0     -1000.0     -1000.0     -1000.0    
      -1000.0     -1000.0     -1000.0     -1000.0     -1000.0     -1000.0     -1000.0     -1000.0     -1000.0     -1000.0    
      -1000.0     -1000.0     -1000.0     -1000.0     -1000.0    
 247  -1000.0     -1000.0     -1000.0     -1000.0     -1000.0     -1000.0     -1000.0     -1000.0     -1000.0     -1000.0    
      -1000.0     -1000.0     -1000.0     -1000.0     -1000.0     -1000.0     -1000.0     -1000.0     -1000.0     -1000.0    
      -1000.0     -1000.0     -1000.0     -1000.0     -1000.0     -1000.0     -1000.0     -1000.0     -1000.0     -1000.0    
      -1000.0     -1000.0     -1000.0     -1000.0     -1000.0     -1000.0     -1000.0     -1000.0     -1000.0     -1000.0    
      -1000.0      1.2898E+05  1.2892E+05  1.2883E+05  1.2872E+05  1.2862E+05  1.2851E+05  1.2839E+05  1.2825E+05  1.2812E+05
       1.2797E+05  1.2783E+05  1.2770E+05  1.2758E+05  1.2747E+05  1.2736E+05  1.2726E+05  1.2717E+05  1.2709E+05  1.2700E+05
       1.2693E+05  1.2685E+05  1.2678E+05  1.2671E+05  1.2665E+05  1.2659E+05  1.2653E+05  1.2647E+05  1.2642E+05  1.2637E+05
       1.2632E+05  1.2627E+05  1.2623E+05  1.2618E+05  1.2614E+05  1.2610E+05  1.2606E+05  1.2603E+05  1.2599E+05  1.2596E+05
       1.2593E+05  1.2590E+05  1.2587E+05  1.2585E+05  1.2582E+05  1.2580E+05  1.2578E+05  1.2576E+05  1.2574E+05  1.2573E+05
       1.2571E+05  1.2570E+05  1.2569E+05  1.2568E+05  1.2567E+05  1.2566E+05  1.2566E+05  1.2566E+05  1.2566E+05  1.2566E+05
       1.2567E+05  1.2568E+05  1.2570E+05  1.2572E+05  1.2574E+05  1.2578E+05  1.2582E+05  1.2587E+05  1.2593E+05  1.2598E+05
       1.2602E+05  1.2604E+05 -1000.0     -1000.0     -1000.0     -1000.0     -1000.0     -1000.0     -1000.0     -1000.0    
      -1000.0     -1000.0     -1000.0     -1000.0     -1000.0     -1000.0     -1000.0     -1000.0     -1000.0     -1000.0    
      -1000.0     -1000.0     -1000.0     -1000.0     -1000.0     -1000.0     -1000.0     -1000.0     -1000.0     -1000.0    
      -1000.0     -1000.0     -1000.0     -1000.0     -1000.0    
 248  -1000.0     -1000.0     -1000.0     -1000.0     -1000.0     -1000.0     -1000.0     -1000.0     -1000.0     -1000.0    
      -1000.0     -1000.0     -1000.0     -1000.0     -1000.0     -1000.0     -1000.0     -1000.0     -1000.0     -1000.0    
      -1000.0     -1000.0     -1000.0     -1000.0     -1000.0     -1000.0     -1000.0     -1000.0     -1000.0     -1000.0    
      -1000.0     -1000.0     -1000.0     -1000.0     -1000.0     -1000.0     -1000.0     -1000.0     -1000.0     -1000.0    
      -1000.0     -1000.0     -1000.0     -1000.0      1.2865E+05  1.2859E+05  1.2848E+05  1.2835E+05  1.2818E+05  1.2804E+05
       1.2788E+05  1.2771E+05  1.2756E+05  1.2743E+05  1.2732E+05  1.2722E+05  1.2712E+05  1.2702E+05  1.2694E+05  1.2685E+05
       1.2677E+05  1.2670E+05  1.2663E+05  1.2656E+05  1.2650E+05  1.2643E+05  1.2637E+05  1.2632E+05  1.2626E+05  1.2621E+05
       1.2616E+05  1.2611E+05  1.2607E+05  1.2603E+05  1.2598E+05  1.2594E+05  1.2591E+05  1.2587E+05  1.2584E+05  1.2580E+05
       1.2577E+05  1.2574E+05  1.2572E+05  1.2569E+05  1.2566E+05  1.2564E+05  1.2562E+05  1.2560E+05  1.2558E+05  1.2557E+05
       1.2555E+05  1.2554E+05  1.2553E+05  1.2552E+05  1.2551E+05  1.2550E+05  1.2550E+05  1.2550E+05  1.2550E+05  1.2550E+05
       1.2551E+05  1.2552E+05  1.2554E+05  1.2556E+05  1.2559E+05  1.2563E+05  1.2568E+05  1.2575E+05  1.2584E+05  1.2591E+05
       1.2596E+05  1.2600E+05 -1000.0     -1000.0     -1000.0     -1000.0     -1000.0     -1000.0     -1000.0     -1000.0    
      -1000.0     -1000.0     -1000.0     -1000.0     -1000.0     -1000.0     -1000.0     -1000.0     -1000.0     -1000.0    
      -1000.0     -1000.0     -1000.0     -1000.0     -1000.0     -1000.0     -1000.0     -1000.0     -1000.0     -1000.0    
      -1000.0     -1000.0     -1000.0     -1000.0     -1000.0    
 249  -1000.0     -1000.0     -1000.0     -1000.0     -1000.0     -1000.0     -1000.0     -1000.0     -1000.0     -1000.0    
      -1000.0     -1000.0     -1000.0     -1000.0     -1000.0     -1000.0     -1000.0     -1000.0     -1000.0     -1000.0    
      -1000.0     -1000.0     -1000.0     -1000.0     -1000.0     -1000.0     -1000.0     -1000.0     -1000.0     -1000.0    
      -1000.0     -1000.0     -1000.0     -1000.0     -1000.0     -1000.0     -1000.0     -1000.0     -1000.0     -1000.0    
      -1000.0     -1000.0     -1000.0     -1000.0     -1000.0     -1000.0     -1000.0     -1000.0      1.2808E+05  1.2797E+05
       1.2780E+05  1.2755E+05  1.2740E+05  1.2728E+05  1.2717E+05  1.2706E+05  1.2696E+05  1.2687E+05  1.2678E+05  1.2670E+05
       1.2662E+05  1.2654E+05  1.2647E+05  1.2640E+05  1.2634E+05  1.2627E+05  1.2622E+05  1.2616E+05  1.2610E+05  1.2605E+05
       1.2600E+05  1.2595E+05  1.2591E+05  1.2587E+05  1.2582E+05  1.2578E+05  1.2575E+05  1.2571E+05  1.2568E+05  1.2564E+05
       1.2561E+05  1.2558E+05  1.2555E+05  1.2553E+05  1.2550E+05  1.2548E+05  1.2546E+05  1.2544E+05  1.2542E+05  1.2541E+05
       1.2539E+05  1.2538E+05  1.2537E+05  1.2536E+05  1.2535E+05  1.2534E+05  1.2534E+05  1.2534E+05  1.2534E+05  1.2534E+05
       1.2535E+05  1.2536E+05  1.2538E+05  1.2540E+05  1.2543E+05  1.2547E+05  1.2552E+05  1.2560E+05  1.2577E+05  1.2586E+05
       1.2591E+05 -1000.0     -1000.0     -1000.0     -1000.0     -1000.0     -1000.0     -1000.0     -1000.0     -1000.0    
      -1000.0     -1000.0     -1000.0     -1000.0     -1000.0     -1000.0     -1000.0     -1000.0     -1000.0     -1000.0    
      -1000.0     -1000.0     -1000.0     -1000.0     -1000.0     -1000.0     -1000.0     -1000.0     -1000.0     -1000.0    
      -1000.0     -1000.0     -1000.0     -1000.0     -1000.0    
 250  -1000.0     -1000.0     -1000.0     -1000.0     -1000.0     -1000.0     -1000.0     -1000.0     -1000.0     -1000.0    
      -1000.0     -1000.0     -1000.0     -1000.0     -1000.0     -1000.0     -1000.0     -1000.0     -1000.0     -1000.0    
      -1000.0     -1000.0     -1000.0     -1000.0     -1000.0     -1000.0     -1000.0     -1000.0     -1000.0     -1000.0    
      -1000.0     -1000.0     -1000.0     -1000.0     -1000.0     -1000.0     -1000.0     -1000.0     -1000.0     -1000.0    
      -1000.0     -1000.0     -1000.0     -1000.0     -1000.0     -1000.0     -1000.0     -1000.0     -1000.0     -1000.0    
      -1000.0      1.2730E+05  1.2722E+05  1.2711E+05  1.2701E+05  1.2690E+05  1.2680E+05  1.2671E+05  1.2662E+05  1.2654E+05
       1.2646E+05  1.2638E+05  1.2631E+05  1.2624E+05  1.2618E+05  1.2611E+05  1.2605E+05  1.2600E+05  1.2594E+05  1.2589E+05
       1.2584E+05  1.2579E+05  1.2575E+05  1.2570E+05  1.2566E+05  1.2562E+05  1.2558E+05  1.2555E+05  1.2551E+05  1.2548E+05
       1.2545E+05  1.2542E+05  1.2539E+05  1.2537E+05  1.2534E+05  1.2532E+05  1.2530E+05  1.2528E+05  1.2526E+05  1.2524E+05
       1.2523E+05  1.2521E+05  1.2520E+05  1.2519E+05  1.2518E+05  1.2518E+05  1.2517E+05  1.2517E+05  1.2517E+05  1.2518E+05
       1.2518E+05  1.2520E+05  1.2521E+05  1.2524E+05  1.2527E+05  1.2530E+05  1.2534E+05  1.2538E+05 -1000.0     -1000.0    
      -1000.0     -1000.0     -1000.0     -1000.0     -1000.0     -1000.0     -1000.0     -1000.0     -1000.0     -1000.0    
      -1000.0     -1000.0     -1000.0     -1000.0     -1000.0     -1000.0     -1000.0     -1000.0     -1000.0     -1000.0    
      -1000.0     -1000.0     -1000.0     -1000.0     -1000.0     -1000.0     -1000.0     -1000.0     -1000.0     -1000.0    
      -1000.0     -1000.0     -1000.0     -1000.0     -1000.0    

 HEAD WILL BE SAVED ON UNIT   51 AT END OF TIME STEP    1, STRESS PERIOD    1
1
  VOLUMETRIC BUDGET FOR ENTIRE MODEL AT END OF TIME STEP    1, STRESS PERIOD   1
  ------------------------------------------------------------------------------

     CUMULATIVE VOLUMES      L**3       RATES FOR THIS TIME STEP      L**3/T
     ------------------                 ------------------------

           IN:                                      IN:
           ---                                      ---
             STORAGE =           0.0000               STORAGE =           0.0000
       CONSTANT HEAD =           0.0000         CONSTANT HEAD =           0.0000
     HEAD DEP BOUNDS =           0.0000       HEAD DEP BOUNDS =           0.0000
            RECHARGE =     1417299.8750              RECHARGE =     1417299.8750

            TOTAL IN =     1417299.8750              TOTAL IN =     1417299.8750

          OUT:                                     OUT:
          ----                                     ----
             STORAGE =           0.0000               STORAGE =           0.0000
       CONSTANT HEAD =           0.0000         CONSTANT HEAD =           0.0000
     HEAD DEP BOUNDS =     1417299.8750       HEAD DEP BOUNDS =     1417299.8750
            RECHARGE =           0.0000              RECHARGE =           0.0000

           TOTAL OUT =     1417299.8750             TOTAL OUT =     1417299.8750

            IN - OUT =           0.0000              IN - OUT =           0.0000

 PERCENT DISCREPANCY =           0.00     PERCENT DISCREPANCY =           0.00






         TIME SUMMARY AT END OF TIME STEP    1 IN STRESS PERIOD    1
                    SECONDS     MINUTES      HOURS       DAYS        YEARS
                    -----------------------------------------------------------
   TIME STEP LENGTH 3.15576E+07 5.25960E+05  8766.0      365.25      1.0000    
 STRESS PERIOD TIME 3.15576E+07 5.25960E+05  8766.0      365.25      1.0000    
         TOTAL TIME 3.15576E+07 5.25960E+05  8766.0      365.25      1.0000    
1
 FAILURE TO MEET SOLVER CONVERGENCE CRITERIA
 BUDGET PERCENT DISCREPANCY IS    0.0000
 CONTINUING EXECUTION

 Run end date and time (yyyy/mm/dd hh:mm:ss): 2022/02/28 15:05:28
 Elapsed run time:  2.169 Seconds

