                                  MODFLOW-2005     
      U.S. GEOLOGICAL SURVEY MODULAR FINITE-DIFFERENCE GROUND-WATER FLOW MODEL
                            VERSION 1.12.00 2/3/2017

 LIST FILE: ocotillo.list
                         UNIT    2

 OPENING ocotillo.dis
 FILE TYPE:DIS   UNIT   11   STATUS:OLD    
 FORMAT:FORMATTED              ACCESS:SEQUENTIAL          

 OPENING ocotillo.bas
 FILE TYPE:BAS6   UNIT   13   STATUS:OLD    
 FORMAT:FORMATTED              ACCESS:SEQUENTIAL          

 OPENING ocotillo.lpf
 FILE TYPE:LPF   UNIT   15   STATUS:OLD    
 FORMAT:FORMATTED              ACCESS:SEQUENTIAL          

 OPENING ocotillo.oc
 FILE TYPE:OC   UNIT   14   STATUS:OLD    
 FORMAT:FORMATTED              ACCESS:SEQUENTIAL          

 OPENING ocotillo.pcg
 FILE TYPE:PCG   UNIT   27   STATUS:OLD    
 FORMAT:FORMATTED              ACCESS:SEQUENTIAL          

 OPENING ocotillo.rch
 FILE TYPE:RCH   UNIT   19   STATUS:OLD    
 FORMAT:FORMATTED              ACCESS:SEQUENTIAL          

 OPENING ocotillo.cbc
 FILE TYPE:DATA(BINARY)   UNIT   53   STATUS:REPLACE
 FORMAT:BINARY                 ACCESS:SEQUENTIAL          

 OPENING ocotillo.hds
 FILE TYPE:DATA(BINARY)   UNIT   51   STATUS:REPLACE
 FORMAT:BINARY                 ACCESS:SEQUENTIAL          

 BAS -- BASIC PACKAGE, VERSION 7, 5/2/2005 INPUT READ FROM UNIT   13
 
 MODFLOW was compiled using mixed precision
 Precision of REAL variables:           6
 Precision of DOUBLE PRECISION variables:          15

 DISCRETIZATION INPUT DATA READ FROM UNIT   11
 # DIS package for  MODFLOW-2005, generated by Flopy.
    4 LAYERS       250 ROWS       145 COLUMNS
    1 STRESS PERIOD(S) IN SIMULATION
 MODEL TIME UNIT IS DAYS
 MODEL LENGTH UNIT IS METERS
  Confining bed flag for each layer:
   0   0   0   0

                     DELR =   1000.00    

                     DELC =   1000.00    



           TOP ELEVATION OF LAYER 1
 READING ON UNIT   11 WITH FORMAT: (145E15.6)          



             MODEL LAYER BOTTOM EL. FOR LAYER   1
 READING ON UNIT   11 WITH FORMAT: (145E15.6)          



             MODEL LAYER BOTTOM EL. FOR LAYER   2
 READING ON UNIT   11 WITH FORMAT: (145E15.6)          



             MODEL LAYER BOTTOM EL. FOR LAYER   3
 READING ON UNIT   11 WITH FORMAT: (145E15.6)          



             MODEL LAYER BOTTOM EL. FOR LAYER   4
 READING ON UNIT   11 WITH FORMAT: (145E15.6)          


 STRESS PERIOD     LENGTH       TIME STEPS     MULTIPLIER FOR DELT    SS FLAG
 ----------------------------------------------------------------------------
        1         1.000000          1                    1.000         SS

 STEADY-STATE SIMULATION



 
 # BAS6 package for  MODFLOW-2005, generated by Flopy.                           
 THE FREE FORMAT OPTION HAS BEEN SELECTED



                     BOUNDARY ARRAY FOR LAYER   1
 READING ON UNIT   13 WITH FORMAT: (145I10)            



                     BOUNDARY ARRAY FOR LAYER   2
 READING ON UNIT   13 WITH FORMAT: (145I10)            



                     BOUNDARY ARRAY FOR LAYER   3
 READING ON UNIT   13 WITH FORMAT: (145I10)            



                     BOUNDARY ARRAY FOR LAYER   4
 READING ON UNIT   13 WITH FORMAT: (145I10)            

 AQUIFER HEAD WILL BE SET TO  -999.99     AT ALL NO-FLOW NODES (IBOUND=0).



                       INITIAL HEAD FOR LAYER   1
 READING ON UNIT   13 WITH FORMAT: (145E15.6)          



                       INITIAL HEAD FOR LAYER   2
 READING ON UNIT   13 WITH FORMAT: (145E15.6)          



                       INITIAL HEAD FOR LAYER   3
 READING ON UNIT   13 WITH FORMAT: (145E15.6)          



                       INITIAL HEAD FOR LAYER   4
 READING ON UNIT   13 WITH FORMAT: (145E15.6)          
 # OC package for  MODFLOW-2005, generated by Flopy.

 OUTPUT CONTROL IS SPECIFIED ONLY AT TIME STEPS FOR WHICH OUTPUT IS DESIRED
 COMPACT CELL-BY-CELL BUDGET FILES WILL BE WRITTEN
 AUXILIARY DATA WILL BE SAVED IN CELL-BY-CELL BUDGET FILES
 HEAD PRINT FORMAT CODE IS   0    DRAWDOWN PRINT FORMAT CODE IS   0
 HEADS WILL BE SAVED ON UNIT   51    DRAWDOWNS WILL BE SAVED ON UNIT    0

 LPF -- LAYER-PROPERTY FLOW PACKAGE, VERSION 7, 5/2/2005
         INPUT READ FROM UNIT   15
 # LPF package for  MODFLOW-2005, generated by Flopy.
 CELL-BY-CELL FLOWS WILL BE SAVED ON UNIT   53
 HEAD AT CELLS THAT CONVERT TO DRY= -1.00000E+30
 No named parameters

   LAYER FLAGS:
 LAYER       LAYTYP        LAYAVG         CHANI        LAYVKA        LAYWET
 ---------------------------------------------------------------------------
    1             0             0     0.000E+00             0             0
    2             0             0     0.000E+00             0             0
    3             0             0     0.000E+00             0             0
    4             1             0     0.000E+00             0             0

   INTERPRETATION OF LAYER FLAGS:
                        INTERBLOCK     HORIZONTAL    DATA IN
         LAYER TYPE   TRANSMISSIVITY   ANISOTROPY   ARRAY VKA   WETTABILITY
 LAYER      (LAYTYP)      (LAYAVG)       (CHANI)      (LAYVKA)      (LAYWET)
 ---------------------------------------------------------------------------
    1      CONFINED      HARMONIC      VARIABLE    VERTICAL K  NON-WETTABLE
    2      CONFINED      HARMONIC      VARIABLE    VERTICAL K  NON-WETTABLE
    3      CONFINED      HARMONIC      VARIABLE    VERTICAL K  NON-WETTABLE
    4   CONVERTIBLE      HARMONIC      VARIABLE    VERTICAL K  NON-WETTABLE

 WETTING CAPABILITY IS NOT ACTIVE IN ANY LAYER



              HYD. COND. ALONG ROWS FOR LAYER   1
 READING ON UNIT   15 WITH FORMAT: (145E15.6)          

   HORIZ. ANI. (COL./ROW) =   1.00000     FOR LAYER   1



                VERTICAL HYD. COND. FOR LAYER   1
 READING ON UNIT   15 WITH FORMAT: (145E15.6)          



              HYD. COND. ALONG ROWS FOR LAYER   2
 READING ON UNIT   15 WITH FORMAT: (145E15.6)          

   HORIZ. ANI. (COL./ROW) =   1.00000     FOR LAYER   2



                VERTICAL HYD. COND. FOR LAYER   2
 READING ON UNIT   15 WITH FORMAT: (145E15.6)          



              HYD. COND. ALONG ROWS FOR LAYER   3
 READING ON UNIT   15 WITH FORMAT: (145E15.6)          

   HORIZ. ANI. (COL./ROW) =   1.00000     FOR LAYER   3



                VERTICAL HYD. COND. FOR LAYER   3
 READING ON UNIT   15 WITH FORMAT: (145E15.6)          



              HYD. COND. ALONG ROWS FOR LAYER   4
 READING ON UNIT   15 WITH FORMAT: (145E15.6)          

   HORIZ. ANI. (COL./ROW) =   1.00000     FOR LAYER   4



                VERTICAL HYD. COND. FOR LAYER   4
 READING ON UNIT   15 WITH FORMAT: (145E15.6)          

 RCH -- RECHARGE PACKAGE, VERSION 7, 5/2/2005 INPUT READ FROM UNIT   19
 # RCH package for  MODFLOW-2005, generated by Flopy.
 No named parameters
 OPTION 3 -- RECHARGE TO HIGHEST ACTIVE NODE IN EACH VERTICAL COLUMN


     0 Recharge parameters

 PCG -- CONJUGATE-GRADIENT SOLUTION PACKAGE, VERSION 7, 5/2/2005
 # PCG package for  MODFLOW-2005, generated by Flopy.
 MAXIMUM OF     50 CALLS OF SOLUTION ROUTINE
 MAXIMUM OF     30 INTERNAL ITERATIONS PER CALL TO SOLUTION ROUTINE
 MATRIX PRECONDITIONING TYPE :    1



                                    SOLUTION BY THE CONJUGATE-GRADIENT METHOD
                                   -------------------------------------------
                    MAXIMUM NUMBER OF CALLS TO PCG ROUTINE =       50
                        MAXIMUM ITERATIONS PER CALL TO PCG =       30
                               MATRIX PRECONDITIONING TYPE =        1
        RELAXATION FACTOR (ONLY USED WITH PRECOND. TYPE 1) =    0.10000E+01
 PARAMETER OF POLYNOMIAL PRECOND. = 2 (2) OR IS CALCULATED :        0
                         HEAD CHANGE CRITERION FOR CLOSURE =    0.10000E-04
                     RESIDUAL CHANGE CRITERION FOR CLOSURE =    0.10000E-04
            PCG HEAD AND RESIDUAL CHANGE PRINTOUT INTERVAL =      999
     PRINTING FROM SOLVER IS LIMITED(1) OR SUPPRESSED (>1) =        3
                            STEADY-STATE DAMPING PARAMETER =    0.10000E+01
                               TRANSIENT DAMPING PARAMETER =    0.10000E+01
1
                            STRESS PERIOD NO.    1, LENGTH =   1.000000    
                            -----------------------------------------------

                              NUMBER OF TIME STEPS =     1

                               MULTIPLIER FOR DELT =     1.000

                            INITIAL TIME STEP SIZE =   1.000000    



                           RECHARGE
 READING ON UNIT   19 WITH FORMAT: (145E15.6)          
 
 SOLVING FOR HEAD 

 MAXIMUM HEAD CHANGE FOR EACH ITERATION (1 INDICATES THE FIRST INNER ITERATION):

    HEAD CHANGE    HEAD CHANGE    HEAD CHANGE    HEAD CHANGE    HEAD CHANGE 
   LAYER,ROW,COL  LAYER,ROW,COL  LAYER,ROW,COL  LAYER,ROW,COL  LAYER,ROW,COL
 ---------------------------------------------------------------------------
  1  -646.8      0  -871.6      0   308.3      0  -444.9      0   309.4    
   (  1, 99,102)  (  1, 98,103)  (  1, 93,108)  (  1,100,101)  (  1,100,101)
  0  -233.6      0  -135.0      0  -111.2      0  -82.47      0  -64.37    
   (  1,124,107)  (  1, 99,102)  (  1,126,103)  (  1, 96,105)  (  1, 95,106)
  0  -55.10      0  -48.01      0  -48.03      0  -44.39      0  -40.34    
   (  1, 96,105)  (  2,122,110)  (  1, 94,107)  (  1,124,107)  (  1,126,103)
  0  -31.61      0  -34.05      0  -26.36      0  -23.77      0  -21.17    
   (  1,128,100)  (  1,131, 98)  (  1,123,108)  (  1, 94,107)  (  1,131, 98)
  0  -17.41      0  -14.79      0  -12.31      0  -11.01      0  -9.185    
   (  1,127,102)  (  1,125,105)  (  1,131, 98)  (  1,140, 97)  (  1, 57,106)
  0  -6.008      0   7.973      0  -9.137      0   4.791      0  -4.363    
   (  1, 95,106)  (  1, 57,106)  (  1, 57,106)  (  1, 97,104)  (  1,100,101)
  1  -4.217      0  -3.853      0  -3.265      0  -6.665      0  -4.806    
   (  1, 57,106)  (  1, 97,104)  (  1,122,111)  (  1, 57,106)  (  1, 93,108)
  0  -4.822      0  -6.753      0  -4.866      0   4.114      0   3.747    
   (  1, 98,103)  (  1, 57,106)  (  1,140, 97)  (  3,195,104)  (  3,199,105)
  0   4.014      0   3.218      0  -3.918      0  -4.925      0  -4.427    
   (  3,204,109)  (  1, 94,107)  (  1, 97,104)  (  1, 57,106)  (  1, 92,110)
  0  -3.422      0  -3.759      0  -5.819      0  -5.007      0  -4.520    
   (  1,124,107)  (  1,100,101)  (  1, 97,104)  (  1, 94,107)  (  1, 95,106)
  0  -4.269      0  -5.499      0  -5.888      0  -4.776      0  -5.697    
   (  1, 96,105)  (  1, 98,103)  (  1, 96,105)  (  1, 95,106)  (  1, 99,102)
  0  -4.753      0  -4.417      0  -3.647      0  -4.499      0  -3.863    
   (  1,100,101)  (  1, 97,104)  (  1,100,101)  (  1, 99,102)  (  1, 98,103)
  1   1.971      0  -1.678      0   1.303      0  -1.789      0   2.599    
   (  1, 98,103)  (  1, 98,103)  (  1,127,102)  (  1,100,101)  (  1,100,101)
  0   1.880      0  -2.370      0  -1.720      0  -1.974      0  -1.807    
   (  3,202, 24)  (  1, 99,102)  (  1,126,103)  (  1,140, 97)  (  1, 93,108)
  0  -1.722      0  -1.928      0  -2.572      0  -2.724      0  -3.144    
   (  1, 98,103)  (  1, 95,106)  (  1, 94,107)  (  1, 92,110)  (  1,126,103)
  0  -2.366      0  -3.243      0  -3.076      0  -3.880      0  -3.765    
   (  1, 95,106)  (  1,131, 98)  (  1, 93,108)  (  1, 94,107)  (  1, 96,105)
  0  -3.526      0  -4.010      0  -4.003      0  -4.520      0  -3.827    
   (  1,127,102)  (  1,125,105)  (  1,131, 98)  (  1,128,100)  (  3,104,103)
  0  -3.349      0  -4.840      0  -5.841      0  -3.270      0  -4.554    
   (  1, 95,106)  (  1,122,111)  (  1,140, 97)  (  1,122,111)  (  1,121,112)
  1  -2.095      0  -2.096      0   1.978      0  -2.627      0  -2.126    
   (  1, 95,106)  (  1, 97,104)  (  1,140, 97)  (  1, 57,106)  (  1, 93,108)
  0  -1.944      0  -2.571      0  -1.844      0   1.448      0   1.272    
   (  1, 98,103)  (  1, 57,106)  (  1,140, 97)  (  3,196,105)  (  3,196,105)
  0   1.386      0   1.453      0  -1.165      0  -1.237      0  -1.176    
   (  1, 96,105)  (  1, 94,107)  (  1,131, 98)  (  1, 57,106)  (  1, 92,110)
  0   1.083      0  -1.043      0  -1.473      0  -1.384      0  -1.247    
   (  1,126,103)  (  1,100,101)  (  1, 97,104)  (  1, 94,107)  (  1, 95,106)
  0  -1.386      0  -1.760      0  -2.083      0  -1.740      0  -2.024    
   (  1,121,112)  (  1,126,103)  (  1, 96,105)  (  1, 95,106)  (  1, 99,102)
  0  -2.068      0  -2.002      0  -1.706      0  -1.920      0  -1.998    
   (  1,100,101)  (  1, 94,107)  (  1, 93,108)  (  1, 99,102)  (  1, 98,103)
  1   1.041      0 -0.9479      0  0.7388      0  -1.019      0   1.231    
   (  1, 98,103)  (  1, 98,103)  (  1, 95,106)  (  1,100,101)  (  1,100,101)
  0   1.066      0  -1.173      0  -1.033      0  -1.163      0  -1.060    
   (  3,202, 24)  (  1, 99,102)  (  1,126,103)  (  1,140, 97)  (  1, 93,108)
  0  -1.129      0  -1.017      0  -1.326      0  -1.399      0  -1.709    
   (  1, 98,103)  (  1, 95,106)  (  1, 94,107)  (  1, 92,110)  (  1,126,103)
  0  -1.156      0  -1.693      0  -1.683      0  -2.013      0  -2.073    
   (  1, 95,106)  (  1,131, 98)  (  1, 93,108)  (  1, 94,107)  (  1, 96,105)
  0  -1.828      0  -2.131      0  -2.242      0  -2.558      0  -2.038    
   (  1,127,102)  (  1,125,105)  (  1,131, 98)  (  1, 99,102)  (  3,104,103)
  0  -1.831      0  -2.517      0  -3.124      0  -1.738      0  -2.480    
   (  1, 95,106)  (  1,122,111)  (  1,140, 97)  (  1,122,111)  (  1,121,112)
  1  -1.136      0  -1.114      0   1.245      0  0.8287      0  -1.097    
   (  1, 95,106)  (  1, 97,104)  (  1,140, 97)  (  1,122,111)  (  1, 93,108)
  0 -0.9473      0   1.042      0  0.8808      0  0.7852      0  0.6537    
   (  1, 98,103)  (  2,193,107)  (  2,191,108)  (  3,196,105)  (  3,196,105)
  0  0.7623      0  0.8186      0 -0.6560      0 -0.6387      0 -0.6728    
   (  1, 96,105)  (  1, 94,107)  (  1,131, 98)  (  1,127,102)  (  1, 92,110)
  0  0.6340      0 -0.5151      0 -0.7007      0 -0.5523      0 -0.5928    
   (  1,126,103)  (  1,126,103)  (  1, 97,104)  (  1, 93,108)  (  1,122,110)
  0 -0.7104      0 -0.9644      0  -1.062      0 -0.8357      0 -0.8546    
   (  1, 96,105)  (  1, 99,102)  (  1, 96,105)  (  1, 95,106)  (  4,202, 24)
  0  -1.000      0  -1.053      0 -0.9247      0 -0.8293      0 -0.9872    
   (  1,100,101)  (  1, 94,107)  (  1, 95,106)  (  1, 99,102)  (  1, 98,103)
  1  0.5242      0 -0.4599      0  0.5135      0 -0.5463      0  0.5688    
   (  1, 98,103)  (  1, 93,108)  (  1, 95,106)  (  1,100,101)  (  1,100,101)
  0  0.5624      0  0.4742      0 -0.5986      0 -0.6537      0 -0.5741    
   (  3,202, 24)  (  3,201, 25)  (  1,126,103)  (  1,140, 97)  (  1, 93,108)
  0 -0.7240      0 -0.5382      0 -0.6173      0 -0.7565      0 -0.9527    
   (  1, 98,103)  (  1, 97,104)  (  1,100,101)  (  1, 92,110)  (  1,126,103)
  0 -0.6398      0 -0.9316      0 -0.9053      0  -1.075      0  -1.159    
   (  1, 99,102)  (  1,131, 98)  (  1, 93,108)  (  1, 94,107)  (  1, 96,105)
  0 -0.9968      0  -1.159      0  -1.238      0  -1.418      0  -1.101    
   (  1,127,102)  (  1,125,105)  (  1,131, 98)  (  1, 99,102)  (  3,104,103)
  0 -0.9925      0  -1.358      0  -1.705      0 -0.9279      0  -1.335    
   (  1, 95,106)  (  1,122,111)  (  1,140, 97)  (  1,122,110)  (  1,121,112)
  1 -0.6116      0 -0.6072      0  0.6959      0  0.4395      0 -0.5912    
   (  1, 95,106)  (  1, 97,104)  (  1,140, 97)  (  1,122,111)  (  1, 93,108)
  0  0.5183      0  0.5737      0  0.4967      0  0.4398      0  0.3727    
   (  2,184,104)  (  2,193,107)  (  1,190,108)  (  3,196,105)  (  3,196,105)
  0  0.4632      0  0.3466      0 -0.3882      0 -0.3568      0 -0.3518    
   (  1, 96,105)  (  1, 94,107)  (  1, 97,104)  (  1,127,102)  (  1, 92,110)
  0  0.3216      0 -0.3987      0 -0.4341      0 -0.4346      0 -0.3778    
   (  1, 95,106)  (  1, 95,106)  (  1, 96,105)  (  1, 93,108)  (  1, 94,107)
  0 -0.3494      0 -0.5477      0 -0.4696      0 -0.4375      0 -0.5075    
   (  1,121,112)  (  1, 98,103)  (  1, 99,102)  (  1,121,112)  (  1, 99,102)
  0 -0.6042      0 -0.5795      0 -0.3841      0 -0.4990      0 -0.5825    
   (  1,100,101)  (  1, 97,104)  (  1,127,102)  (  1, 99,102)  (  1, 98,103)
  1  0.3323      0 -0.3290      0 -0.2187      0 -0.3415      0  0.3627    
   (  1, 98,103)  (  1, 98,103)  (  1, 99,102)  (  1,100,101)  (  1,100,101)
  0  0.3038      0 -0.4399      0 -0.3342      0 -0.3544      0 -0.3917    
   (  4,202, 24)  (  1, 99,102)  (  1,126,103)  (  1,140, 97)  (  1, 94,107)
  0 -0.3171      0 -0.3044      0 -0.4160      0 -0.4567      0 -0.5107    
   (  1, 97,104)  (  1, 96,105)  (  1, 93,108)  (  1, 92,110)  (  1, 95,106)
  0 -0.4517      0 -0.5128      0 -0.4620      0 -0.5176      0 -0.6817    
   (  1, 94,107)  (  1,131, 98)  (  1, 93,108)  (  1, 94,107)  (  1, 96,105)
  0 -0.5478      0 -0.6341      0 -0.6844      0 -0.7908      0 -0.6108    
   (  1,127,102)  (  1,125,105)  (  1,131, 98)  (  1, 99,102)  (  1,140, 97)
  0 -0.5465      0 -0.7363      0 -0.9388      0 -0.5034      0 -0.7261    
   (  1, 95,106)  (  1,122,111)  (  1,140, 97)  (  1,122,110)  (  1,121,112)
  1 -0.3327      0 -0.3328      0  0.3887      0  0.2331      0 -0.3203    
   (  1, 95,106)  (  1, 97,104)  (  1,140, 97)  (  2,185,105)  (  1, 93,108)
  0  0.2864      0  0.3154      0  0.2782      0  0.2460      0  0.2112    
   (  2,184,104)  (  1,190,107)  (  1,190,108)  (  3,194,103)  (  3,196,105)
  0  0.2518      0  0.1911      0 -0.2179      0 -0.1979      0 -0.2013    
   (  1, 96,105)  (  1, 94,107)  (  1, 97,104)  (  1,127,102)  (  1, 92,110)
  0  0.1708      0 -0.2227      0 -0.2461      0 -0.2454      0 -0.2123    
   (  1,126,103)  (  1, 95,106)  (  1, 96,105)  (  1, 93,108)  (  1, 94,107)
  0 -0.1936      0 -0.3057      0 -0.2644      0 -0.2406      0 -0.2762    
   (  1,121,112)  (  1, 98,103)  (  1, 99,102)  (  1,121,112)  (  1, 99,102)
  0 -0.3290      0 -0.3201      0 -0.2119      0 -0.2579      0 -0.3134    
   (  1,100,101)  (  1, 97,104)  (  1,127,102)  (  1, 99,102)  (  1, 98,103)
  1  0.1777      0 -0.1839      0 -0.1165      0 -0.1853      0  0.1966    
   (  1, 98,103)  (  1, 98,103)  (  1, 99,102)  (  1,100,101)  (  1,100,101)
  0  0.1638      0 -0.2513      0 -0.1790      0 -0.1957      0 -0.2242    
   (  4,202, 24)  (  1, 99,102)  (  1,126,103)  (  1,140, 97)  (  1, 94,107)
  0 -0.1799      0 -0.1721      0 -0.2237      0 -0.2471      0 -0.2755    
   (  1, 97,104)  (  1, 96,105)  (  1, 93,108)  (  1, 92,110)  (  1, 95,106)
  0 -0.2459      0 -0.2851      0 -0.2541      0 -0.2877      0 -0.3773    
   (  1, 94,107)  (  1,131, 98)  (  1, 93,108)  (  1, 94,107)  (  1, 96,105)
  0 -0.3027      0 -0.3489      0 -0.3791      0 -0.4413      0 -0.3404    
   (  1,127,102)  (  1,125,105)  (  1,131, 98)  (  1, 99,102)  (  1,140, 97)
  0 -0.3029      0 -0.4064      0 -0.5190      0 -0.2748      0 -0.3971    
   (  1, 95,106)  (  1, 93,108)  (  1,140, 97)  (  1,122,110)  (  1,121,112)
  1 -0.1826      0 -0.1832      0  0.2175      0  0.1287      0 -0.1745    
   (  1, 95,106)  (  1, 97,104)  (  1,140, 97)  (  2,185,105)  (  1, 93,108)
  0  0.1583      0  0.1742      0  0.1551      0  0.1379      0  0.1192    
   (  2,184,104)  (  1,190,107)  (  1,190,108)  (  3,194,103)  (  3,196,105)
  0  0.1386      0  0.1041      0 -0.1226      0 -0.1097      0 -0.1138    
   (  1, 96,105)  (  1, 94,107)  (  1, 97,104)  (  1,127,102)  (  1, 92,110)
  0  0.9505E-01  0 -0.1255      0 -0.1381      0 -0.1369      0 -0.1173    
   (  1,126,103)  (  1, 95,106)  (  1, 96,105)  (  1, 93,108)  (  1, 94,107)
  0 -0.1062      0 -0.1701      0 -0.1492      0 -0.1330      0 -0.1493    
   (  1,121,112)  (  1, 98,103)  (  1, 99,102)  (  1,121,112)  (  1, 99,102)
  0 -0.1806      0 -0.1761      0 -0.1178      0 -0.1364      0 -0.1717    
   (  1,100,101)  (  1, 97,104)  (  1,127,102)  (  1, 99,102)  (  1, 98,103)
  1  0.9671E-01  0 -0.1025      0 -0.6329E-01  0 -0.1020      0  0.1071    
   (  1, 98,103)  (  1, 98,103)  (  1, 99,102)  (  1,100,101)  (  1,100,101)
  0  0.8861E-01  0 -0.1423      0 -0.9718E-01  0 -0.1080      0 -0.1261    
   (  4,202, 24)  (  1, 99,102)  (  1,126,103)  (  1,140, 97)  (  1, 94,107)
  0 -0.1011      0 -0.9459E-01  0 -0.1228      0 -0.1361      0 -0.1525    
   (  1, 97,104)  (  1, 96,105)  (  1, 93,108)  (  1, 92,110)  (  1, 95,106)
  0 -0.1367      0 -0.1584      0 -0.1393      0 -0.1582      0 -0.2097    
   (  1, 94,107)  (  1,131, 98)  (  1, 93,108)  (  1, 94,107)  (  1, 96,105)
  0 -0.1676      0 -0.1927      0 -0.2099      0 -0.2459      0 -0.1895    
   (  1,127,102)  (  1,125,105)  (  1,131, 98)  (  1, 99,102)  (  1,140, 97)
  0 -0.1684      0 -0.2257      0 -0.2874      0 -0.1506      0 -0.2183    
   (  1, 95,106)  (  1, 93,108)  (  1,140, 97)  (  1,122,110)  (  1,121,112)
  1 -0.1006      0 -0.1011      0  0.1213      0  0.7115E-01  0 -0.9547E-01
   (  1, 95,106)  (  1, 97,104)  (  1,140, 97)  (  2,185,105)  (  1, 93,108)
  0  0.8753E-01  0  0.9634E-01  0  0.8627E-01  0  0.7726E-01  0  0.6719E-01
   (  2,185,104)  (  1,190,107)  (  1,190,108)  (  3,194,103)  (  3,196,105)
  0  0.7614E-01  0  0.5810E-01  0 -0.6870E-01  0 -0.6095E-01  0 -0.6480E-01
   (  1, 96,105)  (  1, 94,107)  (  1, 97,104)  (  1,127,102)  (  1, 92,110)
  0  0.5371E-01  0 -0.7048E-01  0 -0.7807E-01  0 -0.7662E-01  0 -0.6568E-01
   (  1,126,103)  (  1, 95,106)  (  1, 96,105)  (  1, 93,108)  (  1, 94,107)
  0 -0.5852E-01  0 -0.9357E-01  0 -0.8152E-01  0 -0.7351E-01  0 -0.8109E-01
   (  1,121,112)  (  1, 98,103)  (  1, 99,102)  (  1,121,112)  (  1, 99,102)
  0 -0.9936E-01  0 -0.9662E-01  0 -0.6521E-01  0 -0.7472E-01  0 -0.9518E-01
   (  1,100,101)  (  1, 97,104)  (  1,127,102)  (  1, 99,102)  (  1, 98,103)
  1  0.5377E-01  0 -0.5741E-01  0 -0.3567E-01  0 -0.5739E-01  0  0.5866E-01
   (  1, 98,103)  (  1, 98,103)  (  1, 99,102)  (  1,100,101)  (  1,100,101)
  0 -0.5037E-01  0 -0.7924E-01  0 -0.5415E-01  0 -0.5967E-01  0 -0.7141E-01
   (  1, 96,105)  (  1, 99,102)  (  1,126,103)  (  1,140, 97)  (  1, 94,107)
  0 -0.5670E-01  0 -0.5349E-01  0 -0.6685E-01  0 -0.7436E-01  0 -0.8444E-01
   (  1, 97,104)  (  1, 96,105)  (  1, 93,108)  (  1, 92,110)  (  1,126,103)
  0 -0.7484E-01  0 -0.8815E-01  0 -0.7700E-01  0 -0.8812E-01  0 -0.1161    
   (  1, 94,107)  (  1,131, 98)  (  1, 93,108)  (  1, 94,107)  (  1, 96,105)
  0 -0.9285E-01  0 -0.1066      0 -0.1162      0 -0.1368      0 -0.1055    
   (  1,127,102)  (  1,125,105)  (  1,131, 98)  (  1, 99,102)  (  1,140, 97)
  0 -0.9384E-01  0 -0.1256      0 -0.1592      0 -0.8284E-01  0 -0.1208    
   (  1, 95,106)  (  1, 93,108)  (  1,140, 97)  (  1,122,110)  (  1,100,101)
  1 -0.5566E-01  0 -0.5594E-01  0  0.6750E-01  0  0.3940E-01  0 -0.5246E-01
   (  1, 95,106)  (  1, 97,104)  (  1,140, 97)  (  2,185,105)  (  1, 93,108)
  0  0.4847E-01  0  0.5334E-01  0  0.4797E-01  0  0.4322E-01  0  0.3778E-01
   (  2,185,104)  (  1,190,107)  (  1,190,108)  (  2,196,105)  (  3,196,105)
  0  0.4368E-01  0 -0.3279E-01  0 -0.3890E-01  0 -0.3635E-01  0 -0.3440E-01
   (  1, 96,105)  (  1, 96,105)  (  1, 97,104)  (  1, 94,107)  (  1, 92,110)
  0  0.3176E-01  0 -0.3851E-01  0 -0.4146E-01  0 -0.4168E-01  0 -0.3453E-01
   (  1, 95,106)  (  1, 95,106)  (  1, 96,105)  (  1, 93,108)  (  1, 94,107)
  0 -0.3213E-01  0 -0.5329E-01  0 -0.4889E-01  0 -0.4078E-01  0 -0.4454E-01
   (  1,121,112)  (  1, 98,103)  (  1, 99,102)  (  1,121,112)  (  1, 99,102)
  0 -0.5487E-01  0 -0.5312E-01  0 -0.3652E-01  0 -0.3908E-01  0 -0.5175E-01
   (  1,100,101)  (  1, 97,104)  (  1,127,102)  (  1, 99,102)  (  1, 98,103)
  1  0.2881E-01  0 -0.3153E-01  0  0.1893E-01  0 -0.3081E-01  0  0.3229E-01
   (  1, 98,103)  (  1, 98,103)  (  1,127,102)  (  1,100,101)  (  1,100,101)
  0 -0.2871E-01  0 -0.4600E-01  0 -0.2855E-01  0 -0.3266E-01  0 -0.3818E-01
   (  1, 96,105)  (  1, 99,102)  (  1,126,103)  (  1,140, 97)  (  1, 94,107)
  0 -0.3148E-01  0 -0.2662E-01  0 -0.3867E-01  0 -0.4359E-01  0 -0.4985E-01
   (  1, 97,104)  (  1,122,111)  (  1, 93,108)  (  1, 92,110)  (  1, 95,106)
  0 -0.4478E-01  0 -0.4875E-01  0 -0.4122E-01  0 -0.4582E-01  0 -0.6556E-01
   (  1, 94,107)  (  1,131, 98)  (  1, 93,108)  (  1, 94,107)  (  1, 96,105)
  0 -0.5140E-01  0 -0.5906E-01  0 -0.6430E-01  0 -0.7613E-01  0 -0.5871E-01
   (  1,127,102)  (  1,125,105)  (  1,131, 98)  (  1, 99,102)  (  1,140, 97)
  0 -0.5221E-01  0 -0.6993E-01  0 -0.8825E-01  0 -0.4566E-01  0 -0.6717E-01
   (  1, 95,106)  (  1, 93,108)  (  1,140, 97)  (  1,122,110)  (  1,100,101)
  1 -0.3094E-01  0 -0.3108E-01  0  0.3750E-01  0  0.2182E-01  0 -0.2885E-01
   (  1, 95,106)  (  1, 97,104)  (  1,140, 97)  (  2,185,105)  (  1, 93,108)
  0  0.2690E-01  0  0.2956E-01  0  0.2666E-01  0 -0.2424E-01  0  0.2120E-01
   (  2,185,104)  (  1,190,107)  (  1,190,108)  (  1,127,102)  (  3,196,105)
  0  0.2455E-01  0 -0.1872E-01  0 -0.2194E-01  0 -0.2105E-01  0 -0.1894E-01
   (  1, 96,105)  (  1, 96,105)  (  1, 97,104)  (  1, 94,107)  (  1, 92,110)
  0  0.1814E-01  0 -0.2117E-01  0 -0.2278E-01  0 -0.2303E-01  0 -0.1886E-01
   (  1, 95,106)  (  1, 95,106)  (  1, 96,105)  (  1, 93,108)  (  1, 94,107)
  0 -0.1780E-01  0 -0.2932E-01  0 -0.2679E-01  0 -0.2257E-01  0 -0.2456E-01
   (  1,121,112)  (  1, 98,103)  (  1, 99,102)  (  1,121,112)  (  1, 99,102)
  0 -0.3039E-01  0 -0.2905E-01  0 -0.2017E-01  0 -0.2199E-01  0 -0.2885E-01
   (  1,100,101)  (  1, 97,104)  (  1,127,102)  (  1, 99,102)  (  1, 98,103)
  1  0.1620E-01  0 -0.1771E-01  0 -0.1080E-01  0 -0.1761E-01  0  0.1788E-01
   (  1, 98,103)  (  1, 98,103)  (  1, 99,102)  (  1,100,101)  (  1,100,101)
  0 -0.1587E-01  0 -0.2566E-01  0 -0.1624E-01  0 -0.1804E-01  0 -0.2113E-01
   (  1, 96,105)  (  1, 99,102)  (  1,126,103)  (  1,140, 97)  (  1, 94,107)
  0 -0.1749E-01  0 -0.1489E-01  0 -0.2153E-01  0 -0.2456E-01  0 -0.2818E-01
   (  1, 97,104)  (  1,122,111)  (  1, 93,108)  (  1, 92,110)  (  1, 95,106)
  0 -0.2537E-01  0 -0.2707E-01  0 -0.2280E-01  0 -0.2486E-01  0 -0.3665E-01
   (  1, 94,107)  (  1,131, 98)  (  1, 92,110)  (  1, 94,107)  (  1, 96,105)
  0 -0.2848E-01  0 -0.3273E-01  0 -0.3561E-01  0 -0.4233E-01  0 -0.3261E-01
   (  1,127,102)  (  1,125,105)  (  1,131, 98)  (  1, 99,102)  (  1,140, 97)
  0 -0.2916E-01  0 -0.3897E-01  0 -0.4890E-01  0 -0.2525E-01  0 -0.3733E-01
   (  1, 95,106)  (  1, 93,108)  (  1,140, 97)  (  1,122,110)  (  1,100,101)
  1 -0.1715E-01  0 -0.1721E-01  0  0.2078E-01  0  0.1212E-01  0 -0.1596E-01
   (  1, 95,106)  (  1, 97,104)  (  1,140, 97)  (  2,185,105)  (  1, 93,108)
  0  0.1490E-01  0  0.1639E-01  0  0.1481E-01  0 -0.1366E-01  0  0.1189E-01
   (  2,185,104)  (  2,190,105)  (  1,190,108)  (  1,127,102)  (  2,196,105)
  0  0.1350E-01  0 -0.1032E-01  0 -0.1221E-01  0 -0.1154E-01  0 -0.1079E-01
   (  1, 96,105)  (  1, 96,105)  (  1, 97,104)  (  1, 94,107)  (  1, 92,110)
  0  0.9828E-02  0 -0.1199E-01  0 -0.1289E-01  0 -0.1292E-01  0 -0.1062E-01
   (  1, 95,106)  (  1, 95,106)  (  1, 96,105)  (  1, 93,108)  (  1, 94,107)
  0 -0.9866E-02  0 -0.1628E-01  0 -0.1490E-01  0 -0.1248E-01  0 -0.1351E-01
   (  1,121,112)  (  1, 98,103)  (  1, 99,102)  (  1,121,112)  (  1, 99,102)
  0 -0.1679E-01  0 -0.1608E-01  0 -0.1122E-01  0 -0.1200E-01  0 -0.1594E-01
   (  1,100,101)  (  1, 97,104)  (  1,127,102)  (  1, 99,102)  (  1, 98,103)
  1  0.8943E-02  0 -0.9852E-02  0 -0.5933E-02  0 -0.9753E-02  0  0.9852E-02
   (  1, 98,103)  (  1, 98,103)  (  1, 99,102)  (  1,100,101)  (  1,100,101)
  0 -0.9118E-02  0 -0.1438E-01  0 -0.8926E-02  0 -0.9928E-02  0 -0.1194E-01
   (  1, 96,105)  (  1, 99,102)  (  1,126,103)  (  1,140, 97)  (  1, 94,107)
  0 -0.9832E-02  0 -0.8229E-02  0 -0.1192E-01  0 -0.1348E-01  0 -0.1550E-01
   (  1, 97,104)  (  1,122,111)  (  1, 93,108)  (  1, 92,110)  (  1, 95,106)
  0 -0.1396E-01  0 -0.1511E-01  0 -0.1263E-01  0 -0.1400E-01  0 -0.2028E-01
   (  1, 94,107)  (  1,131, 98)  (  1, 92,110)  (  1, 94,107)  (  1, 96,105)
  0 -0.1579E-01  0 -0.1815E-01  0 -0.1972E-01  0 -0.2354E-01  0 -0.1812E-01
   (  1,127,102)  (  1,125,105)  (  1,131, 98)  (  1, 99,102)  (  1,140, 97)
  0 -0.1626E-01  0 -0.2172E-01  0 -0.2711E-01  0 -0.1398E-01  0 -0.2076E-01
   (  1, 95,106)  (  1, 93,108)  (  1,140, 97)  (  1,122,110)  (  1,100,101)
  1 -0.9544E-02  0 -0.9568E-02  0  0.1152E-01  0  0.6752E-02  0 -0.8832E-02
   (  1, 95,106)  (  1, 97,104)  (  1,140, 97)  (  1, 93,108)  (  1, 93,108)
  0  0.8271E-02  0  0.9096E-02  0  0.8228E-02  0 -0.7692E-02  0  0.6655E-02
   (  2,185,104)  (  2,190,105)  (  1,190,108)  (  1,127,102)  (  2,196,105)
  0  0.7574E-02  0 -0.5847E-02  0 -0.6862E-02  0 -0.6592E-02  0 -0.5959E-02
   (  1, 96,105)  (  1, 96,105)  (  1, 97,104)  (  1, 94,107)  (  1, 92,110)
  0  0.5581E-02  0 -0.6610E-02  0 -0.7100E-02  0 -0.7147E-02  0 -0.5829E-02
   (  1, 95,106)  (  1, 95,106)  (  1, 96,105)  (  1, 93,108)  (  1, 94,107)
  0 -0.5482E-02  0 -0.8956E-02  0 -0.8149E-02  0 -0.6911E-02  0 -0.7479E-02
   (  1,121,112)  (  1, 98,103)  (  1, 99,102)  (  1,121,112)  (  1, 99,102)
  0 -0.9320E-02  0 -0.8830E-02  0 -0.6199E-02  0 -0.6778E-02  0 -0.8907E-02
   (  1,100,101)  (  1, 97,104)  (  1,127,102)  (  1, 99,102)  (  1, 98,103)
  1  0.5042E-02  0 -0.5528E-02  0 -0.3425E-02  0 -0.5565E-02  0  0.5466E-02
   (  1, 98,103)  (  1, 98,103)  (  1, 99,102)  (  1,100,101)  (  1,100,101)
  0 -0.5034E-02  0 -0.8005E-02  0 -0.5081E-02  0 -0.5481E-02  0 -0.6631E-02
   (  1, 96,105)  (  1, 99,102)  (  1,126,103)  (  1,140, 97)  (  1, 94,107)
  0 -0.5468E-02  0 -0.4591E-02  0 -0.6649E-02  0 -0.7586E-02  0 -0.8735E-02
   (  1, 97,104)  (  1,122,111)  (  1, 93,108)  (  1, 92,110)  (  1, 95,106)
  0 -0.7881E-02  0 -0.8397E-02  0 -0.7033E-02  0 -0.7664E-02  0 -0.1133E-01
   (  1, 94,107)  (  1,131, 98)  (  1, 92,110)  (  1, 94,107)  (  1, 96,105)
  0 -0.8753E-02  0 -0.1007E-01  0 -0.1092E-01  0 -0.1309E-01  0 -0.1006E-01
   (  1,127,102)  (  1,125,105)  (  1,131, 98)  (  1, 99,102)  (  1,140, 97)
  0 -0.9070E-02  0 -0.1210E-01  0 -0.1503E-01  0 -0.7748E-02  0 -0.1155E-01
   (  1, 95,106)  (  1, 93,108)  (  1,140, 97)  (  1,122,110)  (  1,100,101)
  1 -0.5310E-02  0 -0.5317E-02  0  0.6374E-02  0  0.3781E-02  0 -0.4898E-02
   (  1, 95,106)  (  1, 97,104)  (  1,140, 97)  (  1, 93,108)  (  1, 93,108)
  0  0.4590E-02  0  0.5049E-02  0  0.4571E-02  0 -0.4331E-02  0  0.3722E-02
   (  2,185,104)  (  2,190,105)  (  1,190,108)  (  1,127,102)  (  2,196,105)
  0  0.4226E-02  0 -0.3281E-02  0 -0.3846E-02  0 -0.3697E-02  0 -0.3324E-02
   (  1, 96,105)  (  1, 96,105)  (  1, 97,104)  (  1, 94,107)  (  1, 92,110)
  0  0.3123E-02  0 -0.3678E-02  0 -0.3948E-02  0 -0.3972E-02  0 -0.3229E-02
   (  1, 95,106)  (  1, 95,106)  (  1, 96,105)  (  1, 93,108)  (  1, 94,107)
  0 -0.3051E-02  0 -0.4917E-02  0 -0.4422E-02  0 -0.3828E-02  0 -0.4140E-02
   (  1,121,112)  (  1, 98,103)  (  1, 99,102)  (  1,121,112)  (  1, 99,102)
  0 -0.5175E-02  0 -0.4855E-02  0 -0.3425E-02  0 -0.3852E-02  0 -0.4988E-02
   (  1,100,101)  (  1, 97,104)  (  1,127,102)  (  1, 99,102)  (  1, 98,103)
  1  0.2853E-02  0 -0.3103E-02  0 -0.1980E-02  0 -0.3179E-02  0  0.3033E-02
   (  1, 98,103)  (  1, 98,103)  (  1, 99,102)  (  1,100,101)  (  1,100,101)
  0 -0.2781E-02  0 -0.4434E-02  0 -0.2901E-02  0 -0.3026E-02  0 -0.3708E-02
   (  1, 96,105)  (  1, 99,102)  (  1,126,103)  (  1,140, 97)  (  1, 94,107)
  0 -0.3048E-02  0 -0.2551E-02  0 -0.3705E-02  0 -0.4236E-02  0 -0.4886E-02
   (  1, 97,104)  (  1,122,111)  (  1, 93,108)  (  1, 92,110)  (  1, 95,106)
  0 -0.4409E-02  0 -0.4674E-02  0 -0.3916E-02  0 -0.4251E-02  0 -0.6318E-02
   (  1, 94,107)  (  1,131, 98)  (  1, 92,110)  (  1, 94,107)  (  1, 96,105)
  0 -0.4854E-02  0 -0.5587E-02  0 -0.6054E-02  0 -0.7279E-02  0 -0.5587E-02
   (  1,127,102)  (  1,125,105)  (  1,131, 98)  (  1, 99,102)  (  1,140, 97)
  0 -0.5055E-02  0 -0.6744E-02  0 -0.8336E-02  0 -0.4299E-02  0 -0.6422E-02
   (  1, 95,106)  (  1, 93,108)  (  1,140, 97)  (  1,122,110)  (  1,100,101)
  1 -0.2960E-02  0 -0.2960E-02  0  0.3527E-02  0  0.2116E-02  0 -0.2718E-02
   (  1, 95,106)  (  1, 97,104)  (  1,140, 97)  (  1, 93,108)  (  1, 93,108)
  0  0.2549E-02  0  0.2804E-02  0  0.2541E-02  0 -0.2438E-02  0  0.2080E-02
   (  2,185,104)  (  2,190,105)  (  1,194,103)  (  1,127,102)  (  2,196,105)
  0  0.2357E-02  0 -0.1836E-02  0 -0.2152E-02  0 -0.2066E-02  0 -0.1854E-02
   (  1, 96,105)  (  1, 96,105)  (  1, 97,104)  (  1, 94,107)  (  1, 92,110)
  0  0.1745E-02  0 -0.2048E-02  0 -0.2195E-02  0 -0.2207E-02  0 -0.1791E-02
   (  1, 95,106)  (  1, 95,106)  (  1, 96,105)  (  1, 93,108)  (  1, 94,107)
  0 -0.1699E-02  0 -0.2705E-02  0 -0.2410E-02  0 -0.2122E-02  0 -0.2292E-02
   (  1,121,112)  (  1, 98,103)  (  1, 99,102)  (  1,121,112)  (  1, 99,102)
  0 -0.2872E-02  0 -0.2675E-02  0 -0.1895E-02  0 -0.2178E-02  0 -0.2792E-02
   (  1,100,101)  (  1, 97,104)  (  1,127,102)  (  1, 99,102)  (  1, 98,103)
  1  0.1611E-02  0 -0.1738E-02  0 -0.1132E-02  0 -0.1805E-02  0  0.1681E-02
   (  1, 98,103)  (  1, 98,103)  (  1, 99,102)  (  1,100,101)  (  1,100,101)
  0 -0.1543E-02  0 -0.2458E-02  0 -0.1644E-02  0 -0.1670E-02  0 -0.2076E-02
   (  1, 96,105)  (  1, 99,102)  (  1,126,103)  (  1,140, 97)  (  1, 94,107)
  0 -0.1701E-02  0 -0.1417E-02  0 -0.2065E-02  0 -0.2365E-02  0 -0.2731E-02
   (  1, 97,104)  (  1,122,111)  (  1, 93,108)  (  1, 92,110)  (  1, 95,106)
  0 -0.2466E-02  0 -0.2601E-02  0 -0.2183E-02  0 -0.2364E-02  0 -0.3522E-02
   (  1, 94,107)  (  1,131, 98)  (  1, 92,110)  (  1, 94,107)  (  1, 96,105)
  0 -0.2692E-02  0 -0.3101E-02  0 -0.3355E-02  0 -0.4051E-02  0 -0.3101E-02
   (  1,127,102)  (  1,125,105)  (  1,131, 98)  (  1, 98,103)  (  1,140, 97)
  0 -0.2819E-02  0 -0.3758E-02  0 -0.4624E-02  0 -0.2388E-02  0 -0.3571E-02
   (  1, 95,106)  (  1, 93,108)  (  1,140, 97)  (  1,122,110)  (  1,100,101)
  1 -0.1649E-02  0 -0.1647E-02  0  0.1951E-02  0  0.1183E-02  0 -0.1511E-02
   (  1, 95,106)  (  1, 97,104)  (  1,140, 97)  (  1, 93,108)  (  1, 93,108)
  0  0.1415E-02  0  0.1557E-02  0  0.1414E-02  0 -0.1372E-02  0  0.1162E-02
   (  2,185,104)  (  1,190,105)  (  1,194,103)  (  1,127,102)  (  2,196,105)
  0  0.1314E-02  0 -0.1025E-02  0 -0.1202E-02  0 -0.1151E-02  0 -0.1036E-02
   (  1, 96,105)  (  1, 96,105)  (  1, 97,104)  (  1, 94,107)  (  1, 92,110)
  0  0.9746E-03  0 -0.1141E-02  0 -0.1223E-02  0 -0.1229E-02  0 -0.9949E-03
   (  1, 95,106)  (  1, 95,106)  (  1, 96,105)  (  1, 93,108)  (  1, 94,107)
  0 -0.9468E-03  0 -0.1496E-02  0 -0.1326E-02  0 -0.1176E-02  0 -0.1270E-02
   (  1,121,112)  (  1, 98,103)  (  1, 99,102)  (  1,121,112)  (  1, 99,102)
  0 -0.1597E-02  0 -0.1479E-02  0 -0.1051E-02  0 -0.1221E-02  0 -0.1556E-02
   (  1,100,101)  (  1, 97,104)  (  1,127,102)  (  1, 99,102)  (  1, 98,103)
  1  0.9016E-03  0 -0.9701E-03  0 -0.6384E-03  0 -0.1016E-02  0  0.9339E-03
   (  1, 98,103)  (  1, 98,103)  (  1, 99,102)  (  1,100,101)  (  1,100,101)
  0 -0.8614E-03  0 -0.1368E-02  0 -0.9230E-03  0 -0.9198E-03  0 -0.1162E-02
   (  1, 96,105)  (  1, 99,102)  (  1,126,103)  (  1,140, 97)  (  1, 94,107)
  0 -0.9509E-03  0 -0.7864E-03  0 -0.1153E-02  0 -0.1320E-02  0 -0.1526E-02
   (  1, 97,104)  (  1,122,111)  (  1, 93,108)  (  1, 92,110)  (  1, 95,106)
  0 -0.1379E-02  0 -0.1448E-02  0 -0.1218E-02  0 -0.1318E-02  0 -0.1964E-02
   (  1, 94,107)  (  1,131, 98)  (  1, 92,110)  (  1, 94,107)  (  1, 96,105)
  0 -0.1494E-02  0 -0.1722E-02  0 -0.1860E-02  0 -0.2255E-02  0 -0.1722E-02
   (  1,127,102)  (  1,125,105)  (  1,131, 98)  (  1, 98,103)  (  1,140, 97)
  0 -0.1571E-02  0 -0.2094E-02  0 -0.2566E-02  0 -0.1327E-02  0 -0.1986E-02
   (  1, 95,106)  (  1, 93,108)  (  1,140, 97)  (  1,122,110)  (  1,100,101)
  1 -0.9198E-03  0 -0.9181E-03  0  0.1079E-02  0  0.6612E-03  0 -0.8401E-03
   (  1, 95,106)  (  1, 97,104)  (  1,140, 97)  (  1, 93,108)  (  1, 93,108)
  0  0.7857E-03  0  0.8646E-03  0  0.7873E-03  0 -0.7724E-03  0 -0.6539E-03
   (  2,185,104)  (  1,190,105)  (  1,194,103)  (  1,127,102)  (  1,125,105)
  0  0.7333E-03  0 -0.5713E-03  0 -0.6692E-03  0 -0.6430E-03  0 -0.5772E-03
   (  1, 96,105)  (  1, 96,105)  (  1, 97,104)  (  1, 94,107)  (  1, 92,110)
  0  0.5451E-03  0 -0.6347E-03  0 -0.6799E-03  0 -0.6835E-03  0 -0.5524E-03
   (  1, 95,106)  (  1, 95,106)  (  1, 96,105)  (  1, 93,108)  (  1, 94,107)
  0 -0.5274E-03  0 -0.8343E-03  0 -0.7446E-03  0 -0.6525E-03  0 -0.7056E-03
   (  1,121,112)  (  1, 98,103)  (  1, 99,102)  (  1,121,112)  (  1, 99,102)
  0 -0.8888E-03  0 -0.8234E-03  0 -0.5856E-03  0 -0.6709E-03  0 -0.8619E-03
   (  1,100,101)  (  1, 97,104)  (  1,127,102)  (  1, 99,102)  (  1, 98,103)
  1  0.4981E-03  0 -0.5396E-03  0 -0.3519E-03  0 -0.5627E-03  0  0.5195E-03
   (  1, 98,103)  (  1, 98,103)  (  1, 99,102)  (  1,100,101)  (  1,100,101)
  0 -0.4872E-03  0 -0.7685E-03  0 -0.5094E-03  0 -0.5058E-03  0 -0.6505E-03
   (  1, 96,105)  (  1, 99,102)  (  1,126,103)  (  1,140, 97)  (  1, 94,107)
  0 -0.5328E-03  0 -0.4364E-03  0 -0.6451E-03  0 -0.7383E-03  0 -0.8536E-03
   (  1, 97,104)  (  1,122,111)  (  1, 93,108)  (  1, 92,110)  (  1, 95,106)
  0 -0.7724E-03  0 -0.8057E-03  0 -0.6805E-03  0 -0.7333E-03  0 -0.1096E-02
   (  1, 94,107)  (  1,131, 98)  (  1, 92,110)  (  1, 94,107)  (  1, 96,105)
  0 -0.8287E-03  0 -0.9564E-03  0 -0.1031E-02  0 -0.1256E-02  0 -0.9553E-03
   (  1,127,102)  (  1,125,105)  (  1,131, 98)  (  1, 98,103)  (  1,140, 97)
  0 -0.8764E-03  0 -0.1167E-02  0 -0.1424E-02  0 -0.7381E-03  0 -0.1106E-02
   (  1, 95,106)  (  1, 93,108)  (  1,140, 97)  (  1,122,110)  (  3,105,104)
  1 -0.5122E-03  0 -0.5108E-03  0  0.5967E-03  0  0.3691E-03  0 -0.4681E-03
   (  1, 95,106)  (  1, 97,104)  (  1,140, 97)  (  1, 93,108)  (  1, 93,108)
  0  0.4358E-03  0  0.4804E-03  0  0.4381E-03  0 -0.4348E-03  0 -0.3684E-03
   (  3,185,104)  (  1,193,107)  (  1,194,103)  (  1,127,102)  (  1,125,105)
  0  0.4102E-03  0 -0.3186E-03  0 -0.3711E-03  0 -0.3622E-03  0 -0.3195E-03
   (  1, 96,105)  (  1, 96,105)  (  1, 97,104)  (  1, 94,107)  (  1, 92,110)
  0  0.3062E-03  0 -0.3503E-03  0 -0.3754E-03  0 -0.3794E-03  0 -0.3078E-03
   (  1, 95,106)  (  1, 95,106)  (  1, 96,105)  (  1, 93,108)  (  1,140, 97)
  0 -0.2934E-03  0 -0.4718E-03  0 -0.4320E-03  0 -0.3620E-03  0 -0.3923E-03
   (  1,121,112)  (  1, 98,103)  (  1, 99,102)  (  1,121,112)  (  1, 99,102)
  0 -0.4941E-03  0 -0.4619E-03  0 -0.3287E-03  0 -0.3561E-03  0 -0.4726E-03
   (  1,100,101)  (  1, 97,104)  (  1,127,102)  (  1, 99,102)  (  1, 98,103)
  1  0.2695E-03  0 -0.2975E-03  0 -0.1852E-03  0 -0.3030E-03  0  0.2883E-03
   (  1, 98,103)  (  1, 98,103)  (  1, 99,102)  (  1,100,101)  (  1,100,101)
  0 -0.2817E-03  0 -0.4375E-03  0 -0.2717E-03  0 -0.2770E-03  0 -0.3627E-03
   (  1, 96,105)  (  1, 99,102)  (  1,126,103)  (  1,140, 97)  (  1, 94,107)
  0 -0.2993E-03  0 -0.2425E-03  0 -0.3613E-03  0 -0.4151E-03  0 -0.4786E-03
   (  1, 97,104)  (  1,122,111)  (  1, 93,108)  (  1, 92,110)  (  1, 95,106)
  0 -0.4350E-03  0 -0.4479E-03  0 -0.3810E-03  0 -0.4052E-03  0 -0.6120E-03
   (  1, 94,107)  (  1,131, 98)  (  1, 92,110)  (  1, 94,107)  (  1, 96,105)
  0 -0.4599E-03  0 -0.5313E-03  0 -0.5718E-03  0 -0.6997E-03  0 -0.5299E-03
   (  1,127,102)  (  1,125,105)  (  1,131, 98)  (  1, 98,103)  (  1,140, 97)
  0 -0.4890E-03  0 -0.6504E-03  0 -0.7905E-03  0 -0.4109E-03  0 -0.6161E-03
   (  1, 95,106)  (  1, 93,108)  (  1,140, 97)  (  1,122,111)  (  3,105,104)
  1 -0.2853E-03  0 -0.2842E-03  0  0.3299E-03  0 -0.2060E-03  0 -0.2609E-03
   (  1, 95,106)  (  1, 97,104)  (  1,140, 97)  (  1,140, 97)  (  1, 93,108)
  0  0.2417E-03  0  0.2671E-03  0  0.2437E-03  0 -0.2448E-03  0 -0.2076E-03
   (  3,185,104)  (  1,193,107)  (  1,194,103)  (  1,127,102)  (  1,125,105)
  0  0.2300E-03  0 -0.1786E-03  0 -0.2075E-03  0 -0.2028E-03  0 -0.1773E-03
   (  1, 96,105)  (  1, 96,105)  (  1, 97,104)  (  1, 94,107)  (  1, 92,110)
  0  0.1723E-03  0 -0.1941E-03  0 -0.2080E-03  0 -0.2107E-03  0 -0.1735E-03
   (  1, 95,106)  (  1, 95,106)  (  1, 96,105)  (  1, 93,108)  (  1,140, 97)
  0 -0.1641E-03  0 -0.2604E-03  0 -0.2365E-03  0 -0.2013E-03  0 -0.2184E-03
   (  1,121,112)  (  1, 98,103)  (  1, 99,102)  (  1,121,112)  (  1, 99,102)
  0 -0.2753E-03  0 -0.2555E-03  0 -0.1822E-03  0 -0.2018E-03  0 -0.2646E-03
   (  1,100,101)  (  1, 97,104)  (  1,127,102)  (  1, 99,102)  (  1, 98,103)
  1  0.1520E-03  0 -0.1667E-03  0 -0.1060E-03  0 -0.1718E-03  0  0.1607E-03
   (  1, 98,103)  (  1, 98,103)  (  1, 99,102)  (  1,100,101)  (  1,100,101)
  0 -0.1558E-03  0 -0.2429E-03  0 -0.1541E-03  0 -0.1528E-03  0 -0.2029E-03
   (  1, 96,105)  (  1, 99,102)  (  1,126,103)  (  1,140, 97)  (  1, 94,107)
  0 -0.1671E-03  0 -0.1347E-03  0 -0.2022E-03  0 -0.2330E-03  0 -0.2686E-03
   (  1, 97,104)  (  1,122,111)  (  1, 93,108)  (  1, 92,110)  (  1, 95,106)
  0 -0.2444E-03  0 -0.2490E-03  0 -0.2133E-03  0 -0.2253E-03  0 -0.3423E-03
   (  1, 94,107)  (  1,131, 98)  (  1, 92,110)  (  1, 94,107)  (  1, 96,105)
  0 -0.2553E-03  0 -0.2953E-03  0 -0.3171E-03  0 -0.3899E-03  0 -0.2941E-03
   (  1,127,102)  (  1,125,105)  (  1,131, 98)  (  1, 98,103)  (  1,140, 97)
  0 -0.2726E-03  0 -0.3624E-03  0 -0.4391E-03  0 -0.2288E-03  0 -0.3432E-03
   (  1, 95,106)  (  1, 93,108)  (  1,140, 97)  (  1,122,111)  (  3,105,104)
  1 -0.1592E-03  0 -0.1585E-03  0  0.1824E-03  0 -0.1161E-03  0 -0.1454E-03
   (  1, 95,106)  (  1, 97,104)  (  1,140, 97)  (  1,140, 97)  (  1, 93,108)
  0  0.1341E-03  0  0.1484E-03  0  0.1356E-03  0 -0.1379E-03  0 -0.1171E-03
   (  3,185,104)  (  1,193,107)  (  1,194,103)  (  1,127,102)  (  1,125,105)
  0  0.1283E-03  0 -0.9915E-04  0 -0.1154E-03  0 -0.1124E-03  0 -0.9913E-04
   (  1, 96,105)  (  1, 96,105)  (  1, 97,104)  (  1, 94,107)  (  1, 92,110)
  0  0.9623E-04  0 -0.1085E-03  0 -0.1161E-03  0 -0.1175E-03  0 -0.9778E-04
   (  1, 95,106)  (  1, 95,106)  (  1, 96,105)  (  1, 93,108)  (  1,140, 97)
  0 -0.9164E-04  0 -0.1456E-03  0 -0.1332E-03  0 -0.1119E-03  0 -0.1214E-03
   (  1,121,112)  (  1, 98,103)  (  1, 99,102)  (  1,121,112)  (  1, 99,102)
  0 -0.1534E-03  0 -0.1426E-03  0 -0.1017E-03  0 -0.1108E-03  0 -0.1466E-03
   (  1,100,101)  (  1, 97,104)  (  1,127,102)  (  1, 99,102)  (  1, 98,103)
  1  0.8392E-04  0 -0.9258E-04  0 -0.5802E-04  0 -0.9485E-04  0  0.8946E-04
   (  1, 98,103)  (  1, 98,103)  (  1, 99,102)  (  1,100,101)  (  1,100,101)
  0 -0.8823E-04  0 -0.1364E-03  0 -0.8465E-04  0 -0.8401E-04  0 -0.1138E-03
   (  1, 96,105)  (  1, 99,102)  (  1,126,103)  (  1,140, 97)  (  1, 94,107)
  0 -0.9383E-04  0 -0.7467E-04  0 -0.1133E-03  0 -0.1302E-03  0 -0.1502E-03
   (  1, 97,104)  (  1,122,111)  (  1, 93,108)  (  1, 92,110)  (  1, 95,106)
  0 -0.1367E-03  0 -0.1385E-03  0 -0.1194E-03  0 -0.1263E-03  0 -0.1910E-03
   (  1, 94,107)  (  1,131, 98)  (  1, 92,110)  (  1, 94,107)  (  1, 96,105)
  0 -0.1418E-03  0 -0.1641E-03  0 -0.1759E-03  0 -0.2173E-03  0 -0.1631E-03
   (  1,127,102)  (  1,125,105)  (  1,131, 98)  (  1, 98,103)  (  1,140, 97)
  0 -0.1522E-03  0 -0.2020E-03  0 -0.2439E-03  0 -0.1275E-03  0 -0.1914E-03
   (  1, 95,106)  (  1, 93,108)  (  1,140, 97)  (  1,122,111)  (  3,105,104)
  1 -0.8867E-04  0 -0.8820E-04  0  0.1008E-03  0 -0.6561E-04  0 -0.8114E-04
   (  1, 95,106)  (  1, 97,104)  (  1,140, 97)  (  1,140, 97)  (  1, 93,108)
  0  0.7430E-04  0  0.8249E-04  0  0.7537E-04  0 -0.7766E-04  0 -0.6604E-04
   (  3,185,104)  (  1,193,107)  (  1,194,103)  (  1,127,102)  (  1,125,105)
  0  0.7140E-04  0 -0.5493E-04  0 -0.6423E-04  0 -0.6192E-04  0 -0.5566E-04
   (  1, 96,105)  (  1, 96,105)  (  1, 97,104)  (  1, 94,107)  (  1, 92,110)
  0  0.5355E-04  0 -0.6094E-04  0 -0.6508E-04  0 -0.6558E-04  0 -0.5512E-04
   (  1, 95,106)  (  1, 95,106)  (  1, 96,105)  (  1, 93,108)  (  1,140, 97)
  0 -0.5127E-04  0 -0.8111E-04  0 -0.7428E-04  0 -0.6225E-04  0 -0.6762E-04
   (  1,121,112)  (  1, 98,103)  (  1, 99,102)  (  1,121,112)  (  1, 99,102)
  0 -0.8540E-04  0 -0.7945E-04  0 -0.5665E-04  0 -0.6141E-04  0 -0.8162E-04
   (  1,100,101)  (  1, 97,104)  (  1,127,102)  (  1, 99,102)  (  1, 98,103)
  1  0.4674E-04  0 -0.5159E-04  0 -0.3219E-04  0 -0.5279E-04  0  0.4977E-04
   (  1, 98,103)  (  1, 98,103)  (  1, 99,102)  (  1,100,101)  (  1,100,101)
  0 -0.4972E-04  0 -0.7627E-04  0 -0.4693E-04  0 -0.4624E-04  0 -0.6399E-04
   (  1, 96,105)  (  1, 99,102)  (  1,126,103)  (  1,140, 97)  (  1, 94,107)
  0 -0.5268E-04  0 -0.4224E-04  0 -0.6343E-04  0 -0.7254E-04  0 -0.8377E-04
   (  1, 97,104)  (  1, 96,105)  (  1, 93,108)  (  1, 92,110)  (  1, 95,106)
  0 -0.7625E-04  0 -0.7714E-04  0 -0.6680E-04  0 -0.7117E-04  0 -0.1066E-03
   (  1, 94,107)  (  1,131, 98)  (  1, 92,110)  (  1, 94,107)  (  1, 96,105)
  0 -0.7878E-04  0 -0.9128E-04  0 -0.9762E-04  0 -0.1211E-03  0 -0.9055E-04
   (  1,127,102)  (  1,125,105)  (  1,131, 98)  (  1, 98,103)  (  1,140, 97)
  0 -0.8487E-04  0 -0.1126E-03  0 -0.1355E-03  0 -0.7108E-04  0 -0.1067E-03
   (  1, 95,106)  (  1, 93,108)  (  1,140, 97)  (  1,122,111)  (  3,105,104)
  1 -0.4946E-04  0 -0.4917E-04  0  0.5577E-04  0 -0.3703E-04  0 -0.4525E-04
   (  1, 95,106)  (  1, 97,104)  (  1,140, 97)  (  1,140, 97)  (  1, 93,108)
  0  0.4118E-04  0  0.4583E-04  0  0.4189E-04  0 -0.4376E-04  0 -0.3728E-04
   (  3,185,104)  (  1,193,107)  (  1,194,103)  (  1,127,102)  (  1,125,105)
  0  0.3961E-04  0 -0.3030E-04  0 -0.3583E-04  0 -0.3497E-04  0 -0.3158E-04
   (  1, 96,105)  (  1, 96,105)  (  1, 97,104)  (  1,127,102)  (  1, 92,110)
  0  0.2950E-04  0 -0.3460E-04  0 -0.3687E-04  0 -0.3676E-04  0 -0.3107E-04
   (  1, 95,106)  (  1, 95,106)  (  1, 96,105)  (  1, 93,108)  (  1,140, 97)
  0 -0.2877E-04  0 -0.4471E-04  0 -0.4036E-04  0 -0.3467E-04  0 -0.3769E-04
   (  1,121,112)  (  1, 98,103)  (  1, 99,102)  (  1,121,112)  (  1, 99,102)
  0 -0.4764E-04  0 -0.4407E-04  0 -0.3141E-04  0 -0.3502E-04  0 -0.4583E-04
   (  1,100,101)  (  1, 97,104)  (  1,127,102)  (  1, 99,102)  (  1, 98,103)
  1  0.2646E-04  0 -0.2896E-04  0 -0.1851E-04  0 -0.3004E-04  0  0.2779E-04
   (  1, 98,103)  (  1, 98,103)  (  1, 99,102)  (  1,100,101)  (  1,100,101)
  0 -0.2758E-04  0 -0.4220E-04  0 -0.2673E-04  0 -0.2553E-04  0 -0.3619E-04
   (  1, 96,105)  (  1, 99,102)  (  1,126,103)  (  1,140, 97)  (  1, 94,107)
  0 -0.2957E-04  0 -0.2427E-04  0 -0.3544E-04  0 -0.4012E-04  0 -0.4649E-04
   (  1, 97,104)  (  1, 96,105)  (  1, 93,108)  (  1, 92,110)  (  1, 95,106)
  0 -0.4220E-04  0 -0.4300E-04  0 -0.3735E-04  0 -0.4058E-04  0 -0.5937E-04
   (  1, 94,107)  (  1,131, 98)  (  1, 92,110)  (  1, 94,107)  (  1, 96,105)
  0 -0.4379E-04  0 -0.5077E-04  0 -0.5418E-04  0 -0.6752E-04  0 -0.5031E-04
   (  1,127,102)  (  1,125,105)  (  1,131, 98)  (  1, 98,103)  (  1,140, 97)
  0 -0.4726E-04  0 -0.6277E-04  0 -0.7539E-04  0 -0.3961E-04  0 -0.5942E-04
   (  1, 95,106)  (  1, 93,108)  (  1,140, 97)  (  1,122,111)  (  3,105,104)
  1 -0.2767E-04  0 -0.2749E-04  0  0.3086E-04  0 -0.2086E-04  0 -0.2521E-04
   (  1, 95,106)  (  1, 97,104)  (  1,140, 97)  (  1,140, 97)  (  1, 93,108)
  0  0.2283E-04  0  0.2547E-04  0 -0.2356E-04  0 -0.2466E-04  0 -0.2104E-04
   (  3,185,104)  (  1,195,108)  (  1,140, 97)  (  1,127,102)  (  1,125,105)
  0  0.2220E-04  0 -0.1692E-04  0 -0.2002E-04  0 -0.1981E-04  0 -0.1759E-04
   (  1, 96,105)  (  1, 96,105)  (  1,131, 98)  (  1,127,102)  (  1, 92,110)
  0  0.1659E-04  0 -0.1928E-04  0 -0.2053E-04  0 -0.2047E-04  0 -0.1755E-04
   (  1, 95,106)  (  1, 95,106)  (  1, 96,105)  (  1, 93,108)  (  1,140, 97)
  0 -0.1613E-04  0 -0.2503E-04  0 -0.2229E-04  0 -0.1933E-04  0 -0.2100E-04
   (  1,121,112)  (  1,126,103)  (  1, 99,102)  (  1,121,112)  (  1, 99,102)
  0 -0.2659E-04  0 -0.2448E-04  0 -0.1747E-04  0 -0.1972E-04  0 -0.2562E-04
   (  1,100,101)  (  1, 97,104)  (  1,127,102)  (  1, 99,102)  (  1, 98,103)
  1  0.1485E-04  0 -0.1619E-04  0 -0.1046E-04  0 -0.1690E-04  0  0.1551E-04
   (  1, 98,103)  (  1, 98,103)  (  1, 99,102)  (  1,100,101)  (  1,100,101)
  0 -0.1534E-04  0 -0.2349E-04  0 -0.1502E-04  0 -0.1407E-04  0 -0.2028E-04
   (  1, 96,105)  (  1, 99,102)  (  1,126,103)  (  1,140, 97)  (  1, 94,107)
  0 -0.1656E-04  0 -0.1360E-04  0 -0.1989E-04  0 -0.2251E-04  0 -0.2610E-04
   (  1, 97,104)  (  1, 96,105)  (  1, 93,108)  (  1, 92,110)  (  1, 95,106)
  0 -0.2369E-04  0 -0.2391E-04  0 -0.2095E-04  0 -0.2271E-04  0 -0.3323E-04
   (  1, 94,107)  (  1,131, 98)  (  1, 92,110)  (  1, 94,107)  (  1, 96,105)
  0 -0.2434E-04  0 -0.2825E-04  0 -0.3008E-04  0 -0.3766E-04  0 -0.2793E-04
   (  1,127,102)  (  1,125,105)  (  1,131, 98)  (  1, 98,103)  (  1,140, 97)
  0 -0.2637E-04  0 -0.3500E-04  0 -0.4193E-04  0 -0.2209E-04  0 -0.3314E-04
   (  1, 95,106)  (  1, 93,108)  (  1,140, 97)  (  1,122,111)  (  3,105,104)
  1 -0.1544E-04  0 -0.1534E-04  0  0.1707E-04  0 -0.1178E-04  0 -0.1407E-04
   (  1, 95,106)  (  1, 97,104)  (  1,140, 97)  (  1,140, 97)  (  1, 93,108)
  0  0.1264E-04  0  0.1416E-04  0 -0.1333E-04  0 -0.1390E-04  0 -0.1186E-04
   (  3,185,104)  (  1,195,108)  (  1,140, 97)  (  1,127,102)  (  1,125,105)
  0  0.1251E-04  0 -0.9493E-05  0 -0.1135E-04  0 -0.1122E-04  0 -0.9664E-05
   (  1, 96,105)  (  1, 96,105)  (  1,131, 98)  (  1,127,102)  (  1, 92,110)
  0  0.9440E-05  0 -0.1057E-04  0 -0.1128E-04  0 -0.1136E-04  0 -0.9923E-05
   (  1, 95,106)  (  1, 95,106)  (  1, 96,105)  (  1, 93,108)  (  1,140, 97)
  0 -0.9014E-05  0 -0.1410E-04  0 -0.1300E-04  0 -0.1077E-04  0 -0.1169E-04
   (  1,121,112)  (  1, 98,103)  (  1, 99,102)  (  1,121,112)  (  1, 99,102)
  0 -0.1483E-04  0 -0.1377E-04  0 -0.9824E-05  0 -0.1049E-04  0 -0.1405E-04
   (  1,100,101)  (  1, 97,104)  (  1,127,102)  (  1, 99,102)  (  1, 98,103)
  1  0.8028E-05  0 -0.8913E-05  0 -0.5481E-05  0 -0.9081E-05  0  0.8640E-05
   (  1, 98,103)  (  1, 98,103)  (  1, 99,102)  (  1,100,101)  (  1,100,101)
  0 -0.8829E-05  0 -0.1337E-04  0 -0.8059E-05  0 -0.7707E-05  0 -0.1129E-04
   (  1, 96,105)  (  1, 99,102)  (  1, 98,103)  (  1,140, 97)  (  1, 94,107)
  0 -0.9307E-05  0 -0.7507E-05  0 -0.1120E-04  0 -0.1277E-04  0 -0.1474E-04
   (  1, 97,104)  (  1, 96,105)  (  1, 93,108)  (  1, 92,110)  (  1, 95,106)
  0 -0.1345E-04  0 -0.1327E-04  0 -0.1178E-04  0 -0.1251E-04  0 -0.1865E-04
   (  1, 94,107)  (  1,131, 98)  (  1, 92,110)  (  1, 94,107)  (  1, 96,105)
  0 -0.1353E-04  0 -0.1572E-04  0 -0.1670E-04  0 -0.2100E-04  0 -0.1552E-04
   (  1,127,102)  (  1,125,105)  (  1,131, 98)  (  1, 98,103)  (  1,140, 97)
  0 -0.1469E-04  0 -0.1952E-04  0 -0.2334E-04  0 -0.1232E-04  0 -0.1848E-04
   (  1, 95,106)  (  1, 93,108)  (  1,140, 97)  (  1,122,111)  (  3,105,104)
  1 -0.8635E-05  0 -0.8572E-05  0  0.9450E-05  0 -0.6646E-05  0 -0.7847E-05
   (  1, 95,106)  (  1, 97,104)  (  1,140, 97)  (  1,140, 97)  (  1, 93,108)
  0  0.7000E-05  0  0.7864E-05  0 -0.7551E-05  0 -0.7839E-05  0 -0.6701E-05
   (  3,185,104)  (  1,195,108)  (  1,140, 97)  (  1,127,102)  (  1,125,105)
  0  0.6949E-05  0 -0.5231E-05  0 -0.6392E-05  0 -0.6364E-05  0 -0.5473E-05
   (  1, 96,105)  (  1, 96,105)  (  1,131, 98)  (  1,127,102)  (  1, 92,110)
  0  0.5206E-05  0 -0.5990E-05  0 -0.6374E-05  0 -0.6372E-05  0 -0.5600E-05
   (  1, 95,106)  (  1, 95,106)  (  1, 96,105)  (  1, 93,108)  (  1,140, 97)
  0 -0.5061E-05  0 -0.7847E-05  0 -0.7212E-05  0 -0.6009E-05  0 -0.6523E-05
   (  1,121,112)  (  1, 98,103)  (  1, 99,102)  (  1,121,112)  (  1, 99,102)
  0 -0.8271E-05  0 -0.7686E-05  0 -0.5476E-05  0 -0.5856E-05  0 -0.7846E-05
   (  1,100,101)  (  1, 97,104)  (  1,127,102)  (  1, 99,102)  (  1, 98,103)
  1  0.4489E-05  0 -0.4978E-05  0 -0.3063E-05  0 -0.5076E-05  0  0.4820E-05
   (  1, 98,103)  (  1, 98,103)  (  1, 99,102)  (  1,100,101)  (  1,100,101)
  0 -0.4970E-05  0 -0.7461E-05  0 -0.4511E-05  0 -0.4247E-05  0 -0.6384E-05
   (  1, 96,105)  (  1, 99,102)  (  1, 98,103)  (  1,140, 97)  (  1, 94,107)
  0 -0.5237E-05  0 -0.4307E-05  0 -0.6272E-05  0 -0.7084E-05  0 -0.8192E-05
   (  1, 97,104)  (  1, 96,105)  (  1, 93,108)  (  1, 92,110)  (  1, 95,106)
  0 -0.7464E-05  0 -0.7398E-05  0 -0.6599E-05  0 -0.7120E-05  0 -0.1040E-04
   (  1, 94,107)  (  1,131, 98)  (  1, 92,110)  (  1, 94,107)  (  1, 96,105)
  0 -0.7527E-05  0 -0.8752E-05  0 -0.9279E-05  0 -0.1172E-04  0 -0.8621E-05
   (  1,127,102)  (  1,125,105)  (  1,131, 98)  (  1, 98,103)  (  1,140, 97)
  0 -0.8198E-05  0 -0.1088E-04  0 -0.1299E-04  0 -0.6877E-05  0 -0.1031E-04
   (  1, 95,106)  (  1, 93,108)  (  1,140, 97)  (  1,122,111)  (  3,105,104)
  1 -0.4824E-05  0 -0.4787E-05  0  0.5231E-05  0 -0.3753E-05  0 -0.4381E-05
   (  1, 95,106)  (  1, 97,104)  (  1,140, 97)  (  1,140, 97)  (  1, 93,108)
  0  0.3872E-05  0  0.4366E-05  0 -0.4277E-05  0 -0.4421E-05  0 -0.3784E-05
   (  3,185,104)  (  1,195,108)  (  1,140, 97)  (  1,127,102)  (  1,125,105)
  0  0.3881E-05  0 -0.2902E-05  0 -0.3610E-05  0 -0.3609E-05  0 -0.3070E-05
   (  1, 96,105)  (  1, 96,105)  (  1,131, 98)  (  1,127,102)  (  1, 92,110)
  0  0.2899E-05  0 -0.3357E-05  0 -0.3571E-05  0 -0.3564E-05  0 -0.3164E-05
   (  1, 95,106)  (  1, 95,106)  (  1, 96,105)  (  1, 93,108)  (  1,140, 97)
  0 -0.2840E-05  0 -0.4392E-05  0 -0.4048E-05  0 -0.3390E-05  0 -0.3636E-05
   (  1,121,112)  (  1, 98,103)  (  1, 99,102)  (  1,140, 97)  (  1, 99,102)
  0 -0.4616E-05  0 -0.4298E-05  0 -0.3059E-05  0 -0.3236E-05  0 -0.4364E-05
   (  1,100,101)  (  1, 97,104)  (  1,127,102)  (  1, 99,102)  (  1, 98,103)
  1  0.2491E-05  0 -0.2771E-05  0 -0.1685E-05  0 -0.2812E-05  0  0.2689E-05
   (  1, 98,103)  (  1, 98,103)  (  1, 99,102)  (  1,100,101)  (  1,100,101)
  0 -0.2808E-05  0 -0.4181E-05  0 -0.2540E-05  0 -0.2337E-05  0 -0.3593E-05
   (  1, 96,105)  (  1, 99,102)  (  1, 98,103)  (  1,140, 97)  (  1, 94,107)
  0 -0.2945E-05  0 -0.2441E-05  0 -0.3520E-05  0 -0.3960E-05  0 -0.4577E-05
   (  1, 97,104)  (  1, 96,105)  (  1, 93,108)  (  1, 92,110)  (  1, 95,106)
  0 -0.4174E-05  0 -0.4119E-05  0 -0.3703E-05  0 -0.4012E-05  0 -0.5814E-05
   (  1, 94,107)  (  1,131, 98)  (  1, 92,110)  (  1, 94,107)  (  1, 96,105)
  0 -0.4189E-05  0 -0.4874E-05  0 -0.5157E-05  0 -0.6543E-05  0 -0.4788E-05
   (  1,127,102)  (  1,125,105)  (  1,131, 98)  (  1, 98,103)  (  1,140, 97)
  0 -0.4580E-05  0 -0.6073E-05  0 -0.7236E-05  0 -0.3841E-05  0 -0.5755E-05
   (  1, 95,106)  (  1, 93,108)  (  1,140, 97)  (  1,122,111)  (  3,105,104)
  1 -0.2692E-05  0 -0.2670E-05  0  0.2896E-05  0 -0.2123E-05  0 -0.2450E-05
   (  1, 95,106)  (  1, 97,104)  (  1,140, 97)  (  1,140, 97)  (  1, 93,108)
  0 -0.2162E-05  0  0.2422E-05  0 -0.2423E-05  0 -0.2494E-05  0 -0.2138E-05
   (  1, 98,103)  (  1,195,108)  (  1,140, 97)  (  1,127,102)  (  1,125,105)
  0  0.2174E-05  0 -0.1619E-05  0 -0.2039E-05  0 -0.2046E-05  0 -0.1720E-05
   (  1, 96,105)  (  1, 96,105)  (  1,131, 98)  (  1,127,102)  (  1, 92,110)
  0  0.1623E-05  0 -0.1883E-05  0 -0.2002E-05  0 -0.1991E-05  0 -0.1789E-05
   (  1, 95,106)  (  1, 95,106)  (  1, 96,105)  (  1, 93,108)  (  1,140, 97)
  0 -0.1597E-05  0 -0.2437E-05  0 -0.2225E-05  0 -0.1907E-05  0 -0.2035E-05
   (  1,121,112)  (  1,126,103)  (  1, 99,102)  (  1,140, 97)  (  1, 99,102)
  0 -0.2581E-05  0 -0.2390E-05  0 -0.1701E-05  0 -0.1838E-05  0 -0.2450E-05
   (  1,100,101)  (  1, 97,104)  (  1,127,102)  (  1, 99,102)  (  1, 98,103)

 MAXIMUM RESIDUAL FOR EACH ITERATION (1 INDICATES THE FIRST INNER ITERATION):

    RESIDUAL       RESIDUAL       RESIDUAL       RESIDUAL       RESIDUAL    
   LAYER,ROW,COL  LAYER,ROW,COL  LAYER,ROW,COL  LAYER,ROW,COL  LAYER,ROW,COL
 ---------------------------------------------------------------------------
  1  0.5526E+08  0  0.3012E+08  0  0.2314E+08  0 -0.1765E+08  0 -0.1243E+08
   (  1, 98,103)  (  1,228, 30)  (  1, 90,101)  (  1,100,101)  (  1,111,109)
  0 -0.8431E+07  0  0.5612E+07  0  0.6067E+07  0  0.3366E+07  0  0.2493E+07
   (  1,111,109)  (  1,116,109)  (  1, 96,105)  (  1,112,109)  (  1,121,112)
  0 -0.1838E+07  0  0.2079E+07  0 -0.1288E+07  0  0.1670E+07  0  0.1197E+07
   (  1, 96,105)  (  1, 94,107)  (  1, 94,107)  (  1,123,108)  (  1,118,108)
  0 -0.1171E+07  0 -0.7875E+06  0  0.8208E+06  0 -0.9880E+06  0  0.6442E+06
   (  1,112,109)  (  1,112,109)  (  1, 94,107)  (  1,122,110)  (  1,116,108)
  0  0.5511E+06  0 -0.3893E+06  0  0.3875E+06  0  0.3445E+06  0 -0.4002E+06
   (  1,116,108)  (  1,114,108)  (  1,140, 97)  (  1,114,107)  (  1, 93,108)
  0  0.4570E+06  0 -0.3065E+06  0  0.2996E+06  0  0.2638E+06  0 -0.1902E+06
   (  1,122,110)  (  1,116,108)  (  1,122,110)  (  1, 97,104)  (  1,120,112)
  1 -0.1697E+06  0 -0.1689E+06  0  0.1249E+06  0  0.1843E+06  0 -0.2041E+06
   (  1,122,110)  (  1, 97,104)  (  1, 57,106)  (  1,122,110)  (  1, 93,108)
  0 -0.2022E+06  0 -0.1857E+06  0 -0.1302E+06  0 -0.1314E+06  0 -0.1095E+06
   (  1,121,111)  (  1,121,111)  (  1,125,105)  (  1,123,108)  (  1,119,112)
  0 -0.2108E+06  0  0.2050E+06  0  0.1483E+06  0  0.1260E+06  0 -0.1557E+06
   (  1,122,110)  (  1, 94,107)  (  1,121,111)  (  1,121,111)  (  1, 96,105)
  0  0.1703E+06  0 -0.1607E+06  0 -0.1713E+06  0  0.1263E+06  0  0.1393E+06
   (  1,123,108)  (  1, 94,107)  (  1, 97,104)  (  1,122,110)  (  1,121,112)
  0 -0.8192E+05  0  0.1716E+06  0 -0.1552E+06  0 -0.8567E+05  0 -0.1211E+06
   (  1,119,112)  (  1, 96,105)  (  1, 99,102)  (  1,111,109)  (  1,122,110)
  0 -0.1414E+06  0  0.1310E+06  0 -0.1037E+06  0  0.1324E+06  0  0.5928E+05
   (  1,100,101)  (  1,100,101)  (  1, 98,103)  (  1, 98,103)  (  1,114,108)
  1  0.1079E+06  0  0.7944E+05  0  0.7562E+05  0 -0.9862E+05  0  0.1061E+06
   (  1, 98,103)  (  1, 99,102)  (  1,100,101)  (  1,100,101)  (  1,100,101)
  0  0.5886E+05  0 -0.1054E+06  0 -0.1048E+06  0  0.5589E+05  0  0.6814E+05
   (  1,113,109)  (  1, 99,102)  (  1,126,103)  (  1,100,101)  (  1,120,112)
  0  0.7416E+05  0 -0.8087E+05  0 -0.9095E+05  0  0.7352E+05  0 -0.7765E+05
   (  1, 95,106)  (  1, 95,106)  (  1, 94,107)  (  1,126,103)  (  1, 96,105)
  0  0.7127E+05  0  0.7047E+05  0  0.1042E+06  0 -0.9600E+05  0 -0.6932E+05
   (  1,121,111)  (  1,121,111)  (  1, 94,107)  (  1, 94,107)  (  1,119,112)
  0  0.7003E+05  0 -0.9442E+05  0  0.1182E+06  0 -0.1189E+06  0 -0.1128E+06
   (  1,124,104)  (  1,121,111)  (  1,120,112)  (  1,121,111)  (  1, 93,108)
  0  0.1061E+06  0 -0.1075E+06  0  0.1337E+06  0  0.1573E+06  0  0.1488E+06
   (  1, 93,108)  (  1,122,110)  (  1,121,111)  (  1,121,111)  (  1,121,111)
  1  0.1297E+06  0  0.9627E+05  0  0.5295E+05  0  0.9755E+05  0 -0.9943E+05
   (  1,121,111)  (  1,121,111)  (  1,140, 97)  (  1,122,110)  (  1, 93,108)
  0 -0.1272E+06  0 -0.1069E+06  0 -0.6819E+05  0  0.4682E+05  0 -0.4257E+05
   (  1,121,111)  (  1,121,111)  (  1,121,111)  (  1,124,104)  (  1,119,112)
  0 -0.7750E+05  0  0.6517E+05  0  0.6537E+05  0  0.5346E+05  0  0.4710E+05
   (  1,122,110)  (  1, 94,107)  (  1,121,111)  (  1,121,111)  (  1, 99,102)
  0  0.5592E+05  0 -0.4272E+05  0 -0.5528E+05  0  0.4775E+05  0  0.4236E+05
   (  1,126,103)  (  1, 94,107)  (  1, 97,104)  (  1,122,110)  (  1, 96,105)
  0 -0.3430E+05  0  0.7237E+05  0  0.4467E+05  0 -0.3385E+05  0 -0.5794E+05
   (  1,121,111)  (  1, 96,105)  (  1,126,103)  (  1, 95,106)  (  1,122,110)
  0 -0.5779E+05  0  0.5605E+05  0  0.4379E+05  0  0.5799E+05  0 -0.3434E+05
   (  1,100,101)  (  1,100,101)  (  1, 99,102)  (  1, 98,103)  (  1,123,109)
  1  0.5759E+05  0  0.4072E+05  0  0.4268E+05  0 -0.4942E+05  0  0.5223E+05
   (  1, 98,103)  (  1, 99,102)  (  1,100,101)  (  1,100,101)  (  1,100,101)
  0  0.3202E+05  0  0.4351E+05  0  0.6271E+05  0  0.2960E+05  0  0.3947E+05
   (  1,120,110)  (  1,126,103)  (  1, 96,105)  (  1,123,109)  (  1, 96,105)
  0  0.4042E+05  0 -0.4354E+05  0 -0.3935E+05  0  0.4346E+05  0  0.3473E+05
   (  1, 95,106)  (  1, 97,104)  (  1, 94,107)  (  1,126,103)  (  1, 99,102)
  0  0.3425E+05  0  0.3688E+05  0  0.5048E+05  0 -0.4464E+05  0 -0.3424E+05
   (  1,121,111)  (  1,121,111)  (  1, 94,107)  (  1, 94,107)  (  1,119,112)
  0 -0.3751E+05  0 -0.4410E+05  0 -0.5856E+05  0 -0.6688E+05  0 -0.5607E+05
   (  1,122,108)  (  1,121,111)  (  1,121,111)  (  1,121,111)  (  1, 93,108)
  0  0.5751E+05  0 -0.4470E+05  0  0.6417E+05  0  0.7873E+05  0  0.8008E+05
   (  1, 93,108)  (  1,122,110)  (  1,121,111)  (  1,121,111)  (  1,121,111)
  1  0.6971E+05  0  0.5211E+05  0  0.3543E+05  0  0.5484E+05  0 -0.4821E+05
   (  1,121,111)  (  1,121,111)  (  1,140, 97)  (  1,122,110)  (  1,121,111)
  0 -0.6606E+05  0 -0.5251E+05  0 -0.3470E+05  0 -0.2589E+05  0 -0.1910E+05
   (  1,121,111)  (  1,121,111)  (  1,121,111)  (  1,122,108)  (  1,119,112)
  0 -0.3737E+05  0  0.3386E+05  0  0.3193E+05  0  0.2706E+05  0  0.2352E+05
   (  1,122,110)  (  1, 94,107)  (  1,121,111)  (  1,121,111)  (  1, 99,102)
  0  0.3092E+05  0  0.2699E+05  0 -0.2589E+05  0 -0.2787E+05  0  0.2234E+05
   (  1,126,103)  (  1, 99,102)  (  1, 99,102)  (  1, 98,103)  (  1, 98,103)
  0 -0.1759E+05  0  0.3727E+05  0  0.3120E+05  0 -0.2044E+05  0 -0.2843E+05
   (  1, 96,105)  (  1, 96,105)  (  1, 97,104)  (  1, 95,106)  (  1,122,110)
  0 -0.2576E+05  0  0.2720E+05  0 -0.2343E+05  0  0.3057E+05  0 -0.2049E+05
   (  1,100,101)  (  1, 95,106)  (  1, 93,108)  (  1, 93,108)  (  1,123,109)
  1  0.2851E+05  0 -0.2187E+05  0  0.2509E+05  0 -0.2359E+05  0 -0.2212E+05
   (  1, 93,108)  (  1, 93,108)  (  1, 95,106)  (  1,100,101)  (  1,122,110)
  0 -0.1936E+05  0  0.2901E+05  0  0.3438E+05  0  0.1602E+05  0  0.1875E+05
   (  1, 95,106)  (  1, 97,104)  (  1, 96,105)  (  1,123,109)  (  1, 98,103)
  0 -0.2463E+05  0 -0.2305E+05  0 -0.2192E+05  0  0.2448E+05  0 -0.1889E+05
   (  1, 98,103)  (  1, 99,102)  (  1,100,101)  (  1,126,103)  (  1,126,103)
  0  0.1804E+05  0  0.2000E+05  0  0.2652E+05  0 -0.2441E+05  0 -0.1771E+05
   (  1,121,111)  (  1,121,111)  (  1, 94,107)  (  1,122,110)  (  1,119,112)
  0 -0.2016E+05  0 -0.2310E+05  0 -0.3164E+05  0 -0.3697E+05  0 -0.3065E+05
   (  1,122,108)  (  1,121,111)  (  1,121,111)  (  1,121,111)  (  1, 93,108)
  0  0.3169E+05  0  0.2315E+05  0  0.3344E+05  0  0.4157E+05  0  0.4298E+05
   (  1, 93,108)  (  1,140, 97)  (  1,121,111)  (  1,121,111)  (  1,121,111)
  1  0.3747E+05  0  0.2803E+05  0  0.1976E+05  0  0.2940E+05  0 -0.2613E+05
   (  1,121,111)  (  1,121,111)  (  1,140, 97)  (  1,122,110)  (  1, 93,108)
  0 -0.3473E+05  0 -0.2755E+05  0 -0.1810E+05  0 -0.1454E+05  0 -0.1118E+05
   (  1,121,111)  (  1,121,111)  (  1,121,111)  (  1,122,108)  (  1, 96,105)
  0  0.2326E+05  0  0.1880E+05  0  0.1660E+05  0  0.1387E+05  0 -0.1858E+05
   (  1, 96,105)  (  1, 97,104)  (  1,121,111)  (  1,121,111)  (  1, 95,106)
  0  0.2034E+05  0 -0.1867E+05  0  0.1863E+05  0  0.1223E+05  0 -0.1236E+05
   (  1, 95,106)  (  1, 95,106)  (  1, 93,108)  (  1,123,108)  (  1, 94,107)
  0  0.1100E+05  0 -0.1932E+05  0 -0.1902E+05  0  0.1008E+05  0  0.1679E+05
   (  1,100,101)  (  1,126,103)  (  1, 99,102)  (  1,120,110)  (  1,100,101)
  0 -0.1730E+05  0  0.1498E+05  0  0.1456E+05  0  0.2020E+05  0 -0.1179E+05
   (  1,100,101)  (  1,100,101)  (  1, 99,102)  (  1, 98,103)  (  1,123,109)
  1  0.1928E+05  0  0.1382E+05  0  0.1407E+05  0 -0.1579E+05  0  0.1676E+05
   (  1, 98,103)  (  1, 99,102)  (  1,100,101)  (  1,100,101)  (  1,100,101)
  0   9581.      0 -0.1755E+05  0 -0.1778E+05  0   9792.      0 -0.1104E+05
   (  1,120,110)  (  1, 99,102)  (  1,126,103)  (  1,100,101)  (  1, 94,107)
  0   8864.      0  0.1598E+05  0 -0.1537E+05  0  0.1743E+05  0 -0.1496E+05
   (  1, 94,107)  (  1, 93,108)  (  1, 95,106)  (  1, 95,106)  (  1, 95,106)
  0   9554.      0  0.1091E+05  0 -0.1509E+05  0  0.1731E+05  0  -9256.    
   (  1,121,111)  (  1,121,111)  (  1, 96,105)  (  1, 96,105)  (  1, 96,105)
  0 -0.1059E+05  0 -0.1212E+05  0 -0.1707E+05  0 -0.2032E+05  0 -0.1693E+05
   (  1,127,102)  (  1,121,111)  (  1,121,111)  (  1,121,111)  (  1, 93,108)
  0  0.1756E+05  0  0.1274E+05  0  0.1744E+05  0  0.2198E+05  0  0.2311E+05
   (  1, 93,108)  (  1,140, 97)  (  1,121,111)  (  1,121,111)  (  1,121,111)
  1  0.2016E+05  0 -0.1517E+05  0  0.1097E+05  0  0.1592E+05  0 -0.1443E+05
   (  1,121,111)  (  1,123,109)  (  1,140, 97)  (  1,122,110)  (  1, 93,108)
  0 -0.1838E+05  0 -0.1459E+05  0  -9563.      0  -7911.      0  -6271.    
   (  1,121,111)  (  1,121,111)  (  1,121,111)  (  1,127,102)  (  1, 96,105)
  0  0.1255E+05  0  0.1020E+05  0   8690.      0   7179.      0  -9618.    
   (  1, 96,105)  (  1, 97,104)  (  1,121,111)  (  1,121,111)  (  1, 95,106)
  0  0.1091E+05  0 -0.1035E+05  0  0.1038E+05  0   6405.      0  -7214.    
   (  1, 95,106)  (  1, 95,106)  (  1, 93,108)  (  1,123,108)  (  1, 94,107)
  0   6232.      0 -0.1045E+05  0 -0.1083E+05  0   5756.      0   9383.    
   (  1,100,101)  (  1,126,103)  (  1, 99,102)  (  1, 99,102)  (  1,100,101)
  0  -9474.      0   7763.      0  -7571.      0  0.1055E+05  0  -6660.    
   (  1,100,101)  (  1,100,101)  (  1, 98,103)  (  1, 98,103)  (  1,123,109)
  1  0.1018E+05  0  -7245.      0   7320.      0  -8602.      0   9386.    
   (  1, 98,103)  (  1, 98,103)  (  1,100,101)  (  1,100,101)  (  1,100,101)
  0   5351.      0  -9998.      0  -9599.      0   5503.      0  -6417.    
   (  1, 99,102)  (  1, 99,102)  (  1,126,103)  (  1,100,101)  (  1, 94,107)
  0   5155.      0   8878.      0  -8581.      0   9311.      0  -7775.    
   (  1, 94,107)  (  1, 93,108)  (  1, 95,106)  (  1, 95,106)  (  1, 95,106)
  0   5113.      0   5968.      0  -8078.      0   9401.      0  -5090.    
   (  1,121,111)  (  1,121,111)  (  1, 96,105)  (  1, 96,105)  (  1, 96,105)
  0  -5918.      0  -6426.      0  -9233.      0 -0.1114E+05  0  -9378.    
   (  1,127,102)  (  1,121,111)  (  1,121,111)  (  1,121,111)  (  1, 93,108)
  0   9727.      0   7024.      0   9166.      0  0.1169E+05  0  0.1246E+05
   (  1, 93,108)  (  1,140, 97)  (  1,121,111)  (  1,121,111)  (  1,121,111)
  1  0.1088E+05  0  -8457.      0   6097.      0   8686.      0  -7975.    
   (  1,121,111)  (  1,123,109)  (  1,140, 97)  (  1,122,110)  (  1, 93,108)
  0  -9792.      0  -7766.      0  -5107.      0  -4448.      0  -3563.    
   (  1,121,111)  (  1,121,111)  (  1,121,111)  (  1,127,102)  (  1, 96,105)
  0   6931.      0   5625.      0   4581.      0   3770.      0  -5370.    
   (  1, 96,105)  (  1, 97,104)  (  1,121,111)  (  1,121,111)  (  1, 95,106)
  0   6078.      0  -5681.      0   5716.      0   3435.      0  -3996.    
   (  1, 95,106)  (  1, 95,106)  (  1, 93,108)  (  1,123,108)  (  1, 94,107)
  0   3563.      0  -5724.      0  -6130.      0   3251.      0   5295.    
   (  1,100,101)  (  1,126,103)  (  1, 99,102)  (  1, 99,102)  (  1,100,101)
  0  -5172.      0  -4211.      0  -4130.      0   5698.      0  -3721.    
   (  1,100,101)  (  1, 97,104)  (  1, 98,103)  (  1, 98,103)  (  1,123,109)
  1   5488.      0  -3985.      0  -4033.      0  -4710.      0   5228.    
   (  1, 98,103)  (  1, 98,103)  (  1, 97,104)  (  1,100,101)  (  1,100,101)
  0   3021.      0  -5633.      0  -5249.      0   3104.      0  -3565.    
   (  1, 99,102)  (  1, 99,102)  (  1,126,103)  (  1,100,101)  (  1, 94,107)
  0   2845.      0   4897.      0  -4715.      0   5157.      0   4373.    
   (  1, 94,107)  (  1, 93,108)  (  1, 95,106)  (  1, 95,106)  (  1, 94,107)
  0   2757.      0   3265.      0  -4441.      0   5233.      0  -2843.    
   (  1,121,111)  (  1,121,111)  (  1, 96,105)  (  1, 96,105)  (  1, 96,105)
  0  -3296.      0  -3437.      0  -4998.      0  -6084.      0  -5213.    
   (  1,127,102)  (  1,121,111)  (  1,121,111)  (  1,121,111)  (  1, 93,108)
  0   5386.      0   3878.      0  -5024.      0   6241.      0   6723.    
   (  1, 93,108)  (  1,140, 97)  (  1,123,109)  (  1,121,111)  (  1,121,111)
  1   5884.      0  -4703.      0   3384.      0   4748.      0  -4426.    
   (  1,121,111)  (  1,123,109)  (  1,140, 97)  (  1,122,110)  (  1, 93,108)
  0  -5237.      0  -4153.      0  -2746.      0  -2486.      0  -1994.    
   (  1,121,111)  (  1,121,111)  (  1,121,111)  (  1,127,102)  (  1, 96,105)
  0   3794.      0   3103.      0   2435.      0   2001.      0  -2852.    
   (  1, 96,105)  (  1, 97,104)  (  1,121,111)  (  1,121,111)  (  1, 95,106)
  0   3305.      0  -3174.      0   3167.      0   1941.      0  -2277.    
   (  1, 95,106)  (  1, 95,106)  (  1, 93,108)  (  1, 94,107)  (  1, 94,107)
  0   1973.      0  -3169.      0  -3360.      0   1791.      0   2953.    
   (  1,100,101)  (  1,126,103)  (  1, 99,102)  (  1, 99,102)  (  1,100,101)
  0  -2857.      0  -2341.      0  -2300.      0   3168.      0  -2063.    
   (  1,100,101)  (  1, 97,104)  (  1, 98,103)  (  1, 98,103)  (  1,123,109)
  1   3052.      0  -2230.      0  -2238.      0  -2611.      0   2893.    
   (  1, 98,103)  (  1, 98,103)  (  1, 97,104)  (  1,100,101)  (  1,100,101)
  0   1663.      0  -3079.      0  -2904.      0   1703.      0  -2031.    
   (  1, 99,102)  (  1, 99,102)  (  1,126,103)  (  1,100,101)  (  1, 94,107)
  0   1635.      0   2716.      0  -2638.      0   2797.      0  -2316.    
   (  1, 94,107)  (  1, 93,108)  (  1, 95,106)  (  1, 95,106)  (  1, 95,106)
  0   1493.      0   1784.      0   2427.      0   2880.      0  -1571.    
   (  1,121,111)  (  1,121,111)  (  1, 97,104)  (  1, 96,105)  (  1, 96,105)
  0  -1832.      0  -1848.      0  -2706.      0  -3316.      0  -2900.    
   (  1,127,102)  (  1,121,111)  (  1,121,111)  (  1,121,111)  (  1, 93,108)
  0   2985.      0   2144.      0  -2774.      0   3345.      0   3631.    
   (  1, 93,108)  (  1,140, 97)  (  1,123,109)  (  1,121,111)  (  1,121,111)
  1   3184.      0  -2610.      0   1876.      0   2601.      0  -2464.    
   (  1,121,111)  (  1,123,109)  (  1,140, 97)  (  1,122,110)  (  1, 93,108)
  0  -2809.      0  -2229.      0  -1482.      0  -1383.      0  -1197.    
   (  1,121,111)  (  1,121,111)  (  1,121,111)  (  1,127,102)  (  1, 96,105)
  0   2277.      0  -1816.      0   1303.      0   1071.      0   2056.    
   (  1, 96,105)  (  1, 96,105)  (  1,121,111)  (  1,121,111)  (  1, 94,107)
  0   1991.      0  -1574.      0   1684.      0   1039.      0  -1095.    
   (  1, 95,106)  (  1, 95,106)  (  1, 93,108)  (  1,123,108)  (  1, 94,107)
  0   1194.      0  -1730.      0  -2011.      0   1038.      0   1679.    
   (  1,100,101)  (  1,126,103)  (  1, 99,102)  (  1, 99,102)  (  1,100,101)
  0  -1547.      0  -1284.      0  -1225.      0   1656.      0  -1137.    
   (  1,100,101)  (  1, 97,104)  (  1, 98,103)  (  1, 98,103)  (  1,123,109)
  1   1599.      0  -1192.      0  -1226.      0  -1415.      0   1637.    
   (  1, 98,103)  (  1, 98,103)  (  1, 97,104)  (  1,100,101)  (  1,100,101)
  0   961.1      0  -1840.      0  -1585.      0   1029.      0  -976.7    
   (  1, 99,102)  (  1, 99,102)  (  1,126,103)  (  1,100,101)  (  1, 94,107)
  0   787.0      0   1443.      0  -1306.      0   1680.      0   1694.    
   (  1,123,108)  (  1, 93,108)  (  1, 95,106)  (  1, 95,106)  (  1, 94,107)
  0  -840.8      0   974.6      0  -1442.      0   1738.      0  -931.7    
   (  1, 94,107)  (  1,121,111)  (  1, 96,105)  (  1, 96,105)  (  1, 96,105)
  0  -1016.      0  -998.1      0  -1466.      0  -1804.      0  -1609.    
   (  1,127,102)  (  1,121,111)  (  1,121,111)  (  1,121,111)  (  1, 93,108)
  0   1661.      0   1186.      0  -1528.      0   1799.      0   1962.    
   (  1, 93,108)  (  1,140, 97)  (  1,123,109)  (  1,121,111)  (  1,121,111)
  1   1724.      0  -1443.      0   1040.      0   1441.      0  -1366.    
   (  1,121,111)  (  1,123,109)  (  1,140, 97)  (  1, 93,108)  (  1, 93,108)
  0  -1512.      0  -1200.      0  -802.3      0  -767.5      0  -688.2    
   (  1,121,111)  (  1,121,111)  (  1,121,111)  (  1,127,102)  (  1, 96,105)
  0   1303.      0  -1037.      0   700.9      0  -635.9      0   1217.    
   (  1, 96,105)  (  1, 96,105)  (  1,121,111)  (  1, 94,107)  (  1, 94,107)
  0   1111.      0  -830.1      0   915.0      0   570.1      0  -582.3    
   (  1, 95,106)  (  1, 95,106)  (  1, 93,108)  (  1,123,108)  (  1, 94,107)
  0   663.7      0  -975.5      0  -1108.      0   574.3      0   935.9    
   (  1,100,101)  (  1,126,103)  (  1, 99,102)  (  1, 99,102)  (  1,100,101)
  0  -868.0      0  -701.2      0  -690.7      0   933.0      0  -624.5    
   (  1,100,101)  (  1, 97,104)  (  1, 98,103)  (  1, 98,103)  (  1,123,109)
  1   902.9      0  -673.3      0  -668.9      0  -795.6      0   910.6    
   (  1, 98,103)  (  1, 98,103)  (  1, 97,104)  (  1,100,101)  (  1,100,101)
  0   530.8      0  -1012.      0  -893.2      0   570.5      0  -518.4    
   (  1, 99,102)  (  1, 99,102)  (  1,126,103)  (  1,100,101)  (  1, 94,107)
  0   439.4      0   783.9      0  -689.0      0   936.0      0   1003.    
   (  1,123,108)  (  1, 93,108)  (  1, 95,106)  (  1, 95,106)  (  1, 94,107)
  0  -513.2      0   531.8      0  -821.4      0   997.8      0  -531.2    
   (  1, 94,107)  (  1,121,111)  (  1, 96,105)  (  1, 96,105)  (  1, 96,105)
  0   565.8      0  -540.5      0  -794.2      0  -981.0      0  -899.4    
   (  1,125,104)  (  1,121,111)  (  1,121,111)  (  1,121,111)  (  1, 93,108)
  0   920.7      0   656.6      0  -846.3      0   969.4      0   1061.    
   (  1, 93,108)  (  1,140, 97)  (  1,123,109)  (  1,121,111)  (  1,121,111)
  1   933.6      0  -800.7      0   577.1      0   798.1      0  -763.6    
   (  1,121,111)  (  1,123,109)  (  1,140, 97)  (  1, 93,108)  (  1, 93,108)
  0  -815.3      0  -647.4      0  -435.1      0  -425.7      0  -379.4    
   (  1,121,111)  (  1,121,111)  (  1,121,111)  (  1,127,102)  (  1, 96,105)
  0   710.7      0  -564.5      0   378.3      0  -334.1      0   650.9    
   (  1, 96,105)  (  1, 96,105)  (  1,121,111)  (  1, 94,107)  (  1, 94,107)
  0   619.6      0  -479.0      0   514.3      0   309.2      0  -334.9    
   (  1, 95,106)  (  1, 95,106)  (  1, 93,108)  (  1,123,108)  (  1, 94,107)
  0   370.1      0  -537.1      0  -620.3      0   319.6      0   522.1    
   (  1,100,101)  (  1,126,103)  (  1, 99,102)  (  1, 99,102)  (  1,100,101)
  0  -478.0      0  -393.4      0  -381.8      0   511.0      0  -342.3    
   (  1,100,101)  (  1, 97,104)  (  1, 98,103)  (  1, 98,103)  (  1,123,109)
  1   495.6      0  -372.7      0  -375.1      0  -438.9      0   506.9    
   (  1, 98,103)  (  1, 98,103)  (  1, 97,104)  (  1,100,101)  (  1,100,101)
  0   295.0      0  -566.2      0  -491.7      0   317.7      0  -297.3    
   (  1, 99,102)  (  1, 99,102)  (  1,126,103)  (  1,100,101)  (  1, 94,107)
  0   241.6      0   440.7      0  -398.4      0   522.1      0   537.1    
   (  1,123,108)  (  1, 93,108)  (  1, 95,106)  (  1, 95,106)  (  1, 94,107)
  0  -269.6      0   290.0      0  -446.6      0   545.5      0  -291.0    
   (  1, 94,107)  (  1,121,111)  (  1, 96,105)  (  1, 96,105)  (  1, 96,105)
  0   317.4      0  -293.5      0  -430.7      0  -533.2      0  -500.5    
   (  1,125,104)  (  1,121,111)  (  1,121,111)  (  1,121,111)  (  1, 93,108)
  0   511.9      0   363.8      0  -467.8      0   523.6      0   573.9    
   (  1, 93,108)  (  1,140, 97)  (  1,123,109)  (  1,121,111)  (  1,121,111)
  1   506.1      0  -443.1      0   320.3      0   443.7      0  -425.2    
   (  1,121,111)  (  1,123,109)  (  1,140, 97)  (  1, 93,108)  (  1, 93,108)
  0  -440.7      0  -350.0      0  -236.4      0  -236.0      0  -216.0    
   (  1,121,111)  (  1,121,111)  (  1,121,111)  (  1,127,102)  (  1, 96,105)
  0   404.1      0  -320.2      0   204.9      0  -198.2      0   378.7    
   (  1, 96,105)  (  1, 96,105)  (  1,121,111)  (  1, 94,107)  (  1, 94,107)
  0   345.5      0  -256.6      0   281.1      0   170.1      0  -180.6    
   (  1, 95,106)  (  1, 95,106)  (  1, 93,108)  (  1,123,108)  (  1, 94,107)
  0   204.8      0  -303.0      0  -341.1      0   176.4      0   290.4    
   (  1,100,101)  (  1,126,103)  (  1, 99,102)  (  1, 99,102)  (  1,100,101)
  0  -268.6      0  -215.6      0  -215.5      0   288.7      0  -187.4    
   (  1,100,101)  (  1, 97,104)  (  1, 98,103)  (  1, 98,103)  (  1,123,109)
  1   280.5      0  -210.5      0  -205.5      0  -247.2      0   281.5    
   (  1, 98,103)  (  1, 98,103)  (  1, 97,104)  (  1,100,101)  (  1,100,101)
  0   162.7      0  -311.2      0  -277.3      0   175.6      0  -160.1    
   (  1, 99,102)  (  1, 99,102)  (  1,126,103)  (  1,100,101)  (  1, 94,107)
  0   134.6      0   240.9      0  -213.5      0   291.0      0   312.4    
   (  1,123,108)  (  1, 93,108)  (  1, 95,106)  (  1, 95,106)  (  1, 94,107)
  0  -160.1      0   158.2      0  -252.9      0   310.8      0  -164.8    
   (  1, 94,107)  (  1,121,111)  (  1, 96,105)  (  1, 96,105)  (  1, 96,105)
  0   177.7      0   162.7      0  -233.8      0  -289.9      0  -279.2    
   (  1,125,104)  (  1,121,105)  (  1,121,111)  (  1,121,111)  (  1, 93,108)
  0   284.6      0   201.7      0  -259.0      0   283.4      0   310.7    
   (  1, 93,108)  (  1,140, 97)  (  1,123,109)  (  1,121,111)  (  1,121,111)
  1   274.6      0  -245.5      0   177.8      0   246.6      0  -237.2    
   (  1,121,111)  (  1,123,109)  (  1,140, 97)  (  1, 93,108)  (  1, 93,108)
  0  -238.7      0  -189.5      0  -128.6      0   131.5      0  -121.5    
   (  1,121,111)  (  1,121,111)  (  1,121,111)  (  1,125,104)  (  1, 96,105)
  0   226.6      0  -179.3      0   111.2      0  -112.0      0   213.2    
   (  1, 96,105)  (  1, 96,105)  (  1,121,111)  (  1, 94,107)  (  1, 94,107)
  0   192.9      0  -141.5      0   155.3      0   93.36      0  -99.70    
   (  1, 95,106)  (  1, 95,106)  (  1, 93,108)  (  1,123,108)  (  1, 94,107)
  0   112.3      0  -171.1      0  -186.0      0   96.76      0   161.0    
   (  1,100,101)  (  1,126,103)  (  1, 99,102)  (  1, 99,102)  (  1,100,101)
  0  -151.0      0  -118.2      0  -121.9      0   164.1      0  -102.6    
   (  1,100,101)  (  1, 97,104)  (  1, 98,103)  (  1, 98,103)  (  1,123,109)
  1   159.7      0  -119.1      0   116.1      0  -139.2      0   155.8    
   (  1, 98,103)  (  1, 98,103)  (  1,100,101)  (  1,100,101)  (  1,100,101)
  0   89.17      0  -169.5      0  -156.5      0   96.22      0  -88.23    
   (  1, 99,102)  (  1, 99,102)  (  1,126,103)  (  1,100,101)  (  1, 94,107)
  0   74.62      0   133.1      0  -117.9      0   162.4      0   175.9    
   (  1,123,108)  (  1, 93,108)  (  1, 95,106)  (  1, 95,106)  (  1, 94,107)
  0  -90.59      0   86.39      0  -141.5      0   174.6      0  -92.27    
   (  1, 94,107)  (  1,121,111)  (  1, 96,105)  (  1, 96,105)  (  1, 96,105)
  0   99.30      0   91.32      0  -127.1      0  -157.7      0  -155.4    
   (  1,125,104)  (  1,121,105)  (  1,121,111)  (  1,121,111)  (  1, 93,108)
  0   158.4      0   111.9      0  -143.4      0   156.9      0   168.4    
   (  1, 93,108)  (  1,140, 97)  (  1,123,109)  (  1,123,108)  (  1,121,111)
  1   149.9      0  -135.9      0   98.78      0   137.3      0  -132.1    
   (  1,123,108)  (  1,123,109)  (  1,140, 97)  (  1, 93,108)  (  1, 93,108)
  0  -129.5      0  -102.8      0  -70.09      0   73.48      0  -68.09    
   (  1,121,111)  (  1,121,111)  (  1,121,111)  (  1,125,104)  (  1, 96,105)
  0   126.8      0  -100.2      0   60.53      0  -63.00      0   119.6    
   (  1, 96,105)  (  1, 96,105)  (  1,121,111)  (  1, 94,107)  (  1, 94,107)
  0   107.7      0  -78.36      0   85.95      0   51.29      0  -55.28    
   (  1, 95,106)  (  1, 95,106)  (  1, 93,108)  (  1,123,108)  (  1, 94,107)
  0   61.82      0  -96.19      0  -101.8      0   53.07      0   89.13    
   (  1,100,101)  (  1,126,103)  (  1, 99,102)  (  1, 99,102)  (  1,100,101)
  0  -84.62      0   67.46      0  -68.57      0   92.84      0  -58.24    
   (  1,100,101)  (  1,100,101)  (  1, 98,103)  (  1, 98,103)  (  1, 98,103)
  1   90.48      0  -67.03      0   66.58      0  -78.15      0   86.14    
   (  1, 98,103)  (  1, 98,103)  (  1,100,101)  (  1,100,101)  (  1,100,101)
  0   48.89      0  -92.71      0  -87.95      0   52.92      0  -48.86    
   (  1, 99,102)  (  1, 99,102)  (  1,126,103)  (  1,100,101)  (  1, 94,107)
  0   41.37      0   73.70      0  -65.32      0   90.64      0   98.69    
   (  1,123,108)  (  1, 93,108)  (  1, 95,106)  (  1, 95,106)  (  1, 94,107)
  0  -50.95      0   47.20      0  -78.94      0   97.88      0  -51.55    
   (  1, 94,107)  (  1,121,111)  (  1, 96,105)  (  1, 96,105)  (  1, 96,105)
  0   55.45      0   51.18      0  -69.16      0  -85.89      0  -86.72    
   (  1,125,104)  (  1,121,105)  (  1,121,111)  (  1,121,111)  (  1, 93,108)
  0   88.16      0   62.08      0  -79.50      0   88.04      0   91.39    
   (  1, 93,108)  (  1,140, 97)  (  1,123,109)  (  1,123,108)  (  1,121,111)
  1   84.11      0  -75.33      0   54.89      0   76.36      0  -73.69    
[...]
        102.3       103.4       104.4       105.3       105.9       106.0       105.4       103.9       101.5       97.97    
        93.48       88.22       82.46       76.49       70.55       64.85       59.52       54.63       50.19       46.23    
        42.77       39.80       37.20       34.92       32.92       31.17       29.63       28.29       27.12       26.11    
        25.24       24.50       23.89       23.39       22.99       22.69       22.49       22.38       22.35       22.41    
        22.54       22.75       23.04       23.40       23.84       24.36       24.97       25.67       26.46       27.37    
        28.43       29.63       30.97       32.45       34.09       35.90       37.91       40.13       42.58       45.29    
        48.28       51.54       55.09       58.91       62.97       67.17       71.38       75.38       78.92       81.78    
        83.80       84.82     -1000.0     -1000.0     -1000.0     -1000.0     -1000.0     -1000.0     -1000.0     -1000.0    
      -1000.0     -1000.0     -1000.0     -1000.0     -1000.0     -1000.0     -1000.0     -1000.0     -1000.0     -1000.0    
      -1000.0     -1000.0     -1000.0     -1000.0     -1000.0     -1000.0     -1000.0     -1000.0     -1000.0     -1000.0    
      -1000.0     -1000.0     -1000.0     -1000.0     -1000.0    
 242  -1000.0     -1000.0     -1000.0     -1000.0     -1000.0     -1000.0     -1000.0     -1000.0     -1000.0     -1000.0    
      -1000.0     -1000.0     -1000.0     -1000.0     -1000.0     -1000.0     -1000.0     -1000.0     -1000.0     -1000.0    
      -1000.0     -1000.0     -1000.0     -1000.0     -1000.0     -1000.0     -1000.0     -1000.0     -1000.0     -1000.0    
      -1000.0     -1000.0       96.24       96.74       97.44       98.29       99.26       100.4       101.6       102.9    
        104.4       105.9       107.4       108.8       109.9       110.6       110.4       109.2       106.7       102.7    
        97.43       91.10       84.21       77.16       70.29       63.82       57.89       52.55       47.81       43.64    
        40.05       37.02       34.40       32.13       30.16       28.44       26.95       25.65       24.53       23.57    
        22.74       22.05       21.47       21.01       20.66       20.40       20.23       20.15       20.16       20.25    
        20.41       20.64       20.95       21.34       21.79       22.33       22.95       23.65       24.46       25.38    
        26.44       27.66       29.02       30.53       32.20       34.05       36.11       38.40       40.96       43.81    
        47.00       50.55       54.47       58.77       63.44       68.38       73.43       78.36       82.83       86.52    
        89.14       90.48     -1000.0     -1000.0     -1000.0     -1000.0     -1000.0     -1000.0     -1000.0     -1000.0    
      -1000.0     -1000.0     -1000.0     -1000.0     -1000.0     -1000.0     -1000.0     -1000.0     -1000.0     -1000.0    
      -1000.0     -1000.0     -1000.0     -1000.0     -1000.0     -1000.0     -1000.0     -1000.0     -1000.0     -1000.0    
      -1000.0     -1000.0     -1000.0     -1000.0     -1000.0    
 243  -1000.0     -1000.0     -1000.0     -1000.0     -1000.0     -1000.0     -1000.0     -1000.0     -1000.0     -1000.0    
      -1000.0     -1000.0     -1000.0     -1000.0     -1000.0     -1000.0     -1000.0     -1000.0     -1000.0     -1000.0    
      -1000.0     -1000.0     -1000.0     -1000.0     -1000.0     -1000.0     -1000.0     -1000.0     -1000.0     -1000.0    
      -1000.0     -1000.0       96.89       97.51       98.24       99.20       100.3       101.6       103.0       104.7    
        106.5       108.5       110.6       112.6       114.5       115.9       116.5       115.8       113.3       108.7    
        102.3       94.43       85.99       77.55       69.55       62.21       55.66       49.89       44.87       40.54    
        36.88       33.84       31.25       29.04       27.14       25.50       24.07       22.85       21.79       20.88    
        20.11       19.47       18.94       18.53       18.22       18.01       17.88       17.84       17.89       18.01    
        18.20       18.46       18.80       19.20       19.67       20.21       20.83       21.54       22.35       23.26    
        24.33       25.55       26.92       28.44       30.12       31.99       34.07       36.40       39.02       41.99    
        45.35       49.15       53.43       58.25       63.60       69.41       75.51       81.65       87.42       92.31    
        95.79       97.58     -1000.0     -1000.0     -1000.0     -1000.0     -1000.0     -1000.0     -1000.0     -1000.0    
      -1000.0     -1000.0     -1000.0     -1000.0     -1000.0     -1000.0     -1000.0     -1000.0     -1000.0     -1000.0    
      -1000.0     -1000.0     -1000.0     -1000.0     -1000.0     -1000.0     -1000.0     -1000.0     -1000.0     -1000.0    
      -1000.0     -1000.0     -1000.0     -1000.0     -1000.0    
 244  -1000.0     -1000.0     -1000.0     -1000.0     -1000.0     -1000.0     -1000.0     -1000.0     -1000.0     -1000.0    
      -1000.0     -1000.0     -1000.0     -1000.0     -1000.0     -1000.0     -1000.0     -1000.0     -1000.0     -1000.0    
      -1000.0     -1000.0     -1000.0     -1000.0     -1000.0     -1000.0     -1000.0     -1000.0     -1000.0     -1000.0    
      -1000.0     -1000.0     -1000.0       98.16       98.79       99.99       101.1       102.6       104.4       106.3    
        108.5       111.1       113.8       116.6       119.5       122.0       123.7       124.0       121.8       116.5    
        108.3       98.21       87.62       77.40       68.06       59.80       52.63       46.49       41.26       36.85    
        33.20       30.22       27.73       25.64       23.86       22.33       21.01       19.87       18.89       18.05    
        17.35       16.77       16.30       15.95       15.69       15.52       15.44       15.45       15.54       15.70    
        15.92       16.21       16.57       16.98       17.46       18.01       18.63       19.33       20.12       21.03    
        22.09       23.31       24.67       26.18       27.85       29.70       31.77       34.10       36.75       39.76    
        43.23       47.23       51.85       57.17       63.25       70.04       77.43       85.18       92.76       99.36    
        104.1       106.5     -1000.0     -1000.0     -1000.0     -1000.0     -1000.0     -1000.0     -1000.0     -1000.0    
      -1000.0     -1000.0     -1000.0     -1000.0     -1000.0     -1000.0     -1000.0     -1000.0     -1000.0     -1000.0    
      -1000.0     -1000.0     -1000.0     -1000.0     -1000.0     -1000.0     -1000.0     -1000.0     -1000.0     -1000.0    
      -1000.0     -1000.0     -1000.0     -1000.0     -1000.0    
 245  -1000.0     -1000.0     -1000.0     -1000.0     -1000.0     -1000.0     -1000.0     -1000.0     -1000.0     -1000.0    
      -1000.0     -1000.0     -1000.0     -1000.0     -1000.0     -1000.0     -1000.0     -1000.0     -1000.0     -1000.0    
      -1000.0     -1000.0     -1000.0     -1000.0     -1000.0     -1000.0     -1000.0     -1000.0     -1000.0     -1000.0    
      -1000.0     -1000.0     -1000.0     -1000.0     -1000.0       100.9       101.8       103.3       105.7       107.8    
        110.4       113.6       117.0       120.8       124.9       128.9       132.5       134.5       133.4       127.1    
        115.8       102.3       88.67       76.25       65.43       56.25       48.56       42.16       36.86       32.49    
        28.96       26.13       23.83       21.92       20.32       18.95       17.76       16.72       15.84       15.09    
        14.46       13.96       13.56       13.26       13.06       12.94       12.92       12.98       13.12       13.32    
        13.58       13.90       14.28       14.71       15.20       15.74       16.35       17.02       17.78       18.67    
        19.71       20.92       22.26       23.75       25.39       27.20       29.22       31.49       34.08       37.08    
        40.58       44.69       49.54       55.28       62.06       69.93       78.89       88.72       98.73       107.8    
        114.5       117.6     -1000.0     -1000.0     -1000.0     -1000.0     -1000.0     -1000.0     -1000.0     -1000.0    
      -1000.0     -1000.0     -1000.0     -1000.0     -1000.0     -1000.0     -1000.0     -1000.0     -1000.0     -1000.0    
      -1000.0     -1000.0     -1000.0     -1000.0     -1000.0     -1000.0     -1000.0     -1000.0     -1000.0     -1000.0    
      -1000.0     -1000.0     -1000.0     -1000.0     -1000.0    
 246  -1000.0     -1000.0     -1000.0     -1000.0     -1000.0     -1000.0     -1000.0     -1000.0     -1000.0     -1000.0    
      -1000.0     -1000.0     -1000.0     -1000.0     -1000.0     -1000.0     -1000.0     -1000.0     -1000.0     -1000.0    
      -1000.0     -1000.0     -1000.0     -1000.0     -1000.0     -1000.0     -1000.0     -1000.0     -1000.0     -1000.0    
      -1000.0     -1000.0     -1000.0     -1000.0     -1000.0     -1000.0     -1000.0     -1000.0       107.3       108.9    
        111.8       116.0       119.9       124.6       130.5       136.4       142.6       148.2       150.1       142.2    
        125.3       106.1       88.32       73.32       61.08       51.18       43.19       36.73       31.53       27.37    
        24.10       21.55       19.54       17.91       16.56       15.39       14.35       13.44       12.65       12.00    
        11.46       11.03       10.70       10.47       10.33       10.28       10.31       10.44       10.63       10.88    
        11.18       11.53       11.92       12.37       12.86       13.41       13.99       14.61       15.33       16.17    
        17.19       18.39       19.72       21.18       22.77       24.49       26.41       28.55       31.02       33.89    
        37.29       41.38       46.32       52.34       59.69       68.63       79.33       91.69       105.0       118.0    
        127.8       131.3     -1000.0     -1000.0     -1000.0     -1000.0     -1000.0     -1000.0     -1000.0     -1000.0    
      -1000.0     -1000.0     -1000.0     -1000.0     -1000.0     -1000.0     -1000.0     -1000.0     -1000.0     -1000.0    
      -1000.0     -1000.0     -1000.0     -1000.0     -1000.0     -1000.0     -1000.0     -1000.0     -1000.0     -1000.0    
      -1000.0     -1000.0     -1000.0     -1000.0     -1000.0    
 247  -1000.0     -1000.0     -1000.0     -1000.0     -1000.0     -1000.0     -1000.0     -1000.0     -1000.0     -1000.0    
      -1000.0     -1000.0     -1000.0     -1000.0     -1000.0     -1000.0     -1000.0     -1000.0     -1000.0     -1000.0    
      -1000.0     -1000.0     -1000.0     -1000.0     -1000.0     -1000.0     -1000.0     -1000.0     -1000.0     -1000.0    
      -1000.0     -1000.0     -1000.0     -1000.0     -1000.0     -1000.0     -1000.0     -1000.0     -1000.0     -1000.0    
      -1000.0       119.0       122.1       127.5       136.1       143.8       153.5       165.6       176.5       165.7    
        136.7       107.9       84.92       67.48       54.31       44.17       36.27       30.05       25.18       21.43    
        18.60       16.47       14.85       13.61       12.61       11.69       10.82       10.02       9.342       8.783    
        8.339       8.000       7.755       7.600       7.523       7.517       7.616       7.823       8.089       8.390    
        8.726       9.104       9.522       9.978       10.49       11.03       11.58       12.11       12.74       13.53    
        14.52       15.72       17.05       18.49       20.00       21.60       23.35       25.30       27.54       30.15    
        33.32       37.19       41.98       48.05       55.65       65.45       77.86       93.15       111.0       130.5    
        147.1       148.0     -1000.0     -1000.0     -1000.0     -1000.0     -1000.0     -1000.0     -1000.0     -1000.0    
      -1000.0     -1000.0     -1000.0     -1000.0     -1000.0     -1000.0     -1000.0     -1000.0     -1000.0     -1000.0    
      -1000.0     -1000.0     -1000.0     -1000.0     -1000.0     -1000.0     -1000.0     -1000.0     -1000.0     -1000.0    
      -1000.0     -1000.0     -1000.0     -1000.0     -1000.0    
 248  -1000.0     -1000.0     -1000.0     -1000.0     -1000.0     -1000.0     -1000.0     -1000.0     -1000.0     -1000.0    
      -1000.0     -1000.0     -1000.0     -1000.0     -1000.0     -1000.0     -1000.0     -1000.0     -1000.0     -1000.0    
      -1000.0     -1000.0     -1000.0     -1000.0     -1000.0     -1000.0     -1000.0     -1000.0     -1000.0     -1000.0    
      -1000.0     -1000.0     -1000.0     -1000.0     -1000.0     -1000.0     -1000.0     -1000.0     -1000.0     -1000.0    
      -1000.0     -1000.0     -1000.0     -1000.0       142.7       149.5       162.3       184.0       224.0       206.4    
        146.9       103.5       75.61       57.21       44.46       34.89       27.65       22.00       17.73       14.63    
        12.49       10.90       9.794       9.085       8.582       7.970       7.214       6.491       5.908       5.447    
        5.109       4.868       4.715       4.649       4.643       4.654       4.811       5.148       5.510       5.863    
        6.226       6.636       7.078       7.533       8.075       8.659       9.206       9.498       10.01       10.69    
        11.67       12.92       14.28       15.71       17.14       18.55       20.08       21.75       23.68       25.85    
        28.63       32.07       36.35       42.16       49.33       59.50       73.11       91.37       114.4       144.9    
        181.6       165.0     -1000.0     -1000.0     -1000.0     -1000.0     -1000.0     -1000.0     -1000.0     -1000.0    
      -1000.0     -1000.0     -1000.0     -1000.0     -1000.0     -1000.0     -1000.0     -1000.0     -1000.0     -1000.0    
      -1000.0     -1000.0     -1000.0     -1000.0     -1000.0     -1000.0     -1000.0     -1000.0     -1000.0     -1000.0    
      -1000.0     -1000.0     -1000.0     -1000.0     -1000.0    
 249  -1000.0     -1000.0     -1000.0     -1000.0     -1000.0     -1000.0     -1000.0     -1000.0     -1000.0     -1000.0    
      -1000.0     -1000.0     -1000.0     -1000.0     -1000.0     -1000.0     -1000.0     -1000.0     -1000.0     -1000.0    
      -1000.0     -1000.0     -1000.0     -1000.0     -1000.0     -1000.0     -1000.0     -1000.0     -1000.0     -1000.0    
      -1000.0     -1000.0     -1000.0     -1000.0     -1000.0     -1000.0     -1000.0     -1000.0     -1000.0     -1000.0    
      -1000.0     -1000.0     -1000.0     -1000.0     -1000.0     -1000.0     -1000.0     -1000.0       326.3       285.5    
        139.2       82.93       56.41       41.18       31.35       23.24       17.41       12.57       9.117       6.911    
        5.889       4.867       4.341       4.356       4.676       4.404       3.578       2.814       2.340       1.980    
        1.773       1.645       1.585       1.636       1.748       1.641       1.821       2.444       2.937       3.322    
        3.676       4.133       4.618       4.999       5.619       6.318       7.080       6.660       7.133       7.566    
        8.579       9.994       11.44       12.94       14.28       15.37       16.67       17.94       19.56       20.93    
        23.27       26.08       29.14       34.88       39.89       49.92       63.29       83.95       109.3       151.5    
        267.2     -1000.0     -1000.0     -1000.0     -1000.0     -1000.0     -1000.0     -1000.0     -1000.0     -1000.0    
      -1000.0     -1000.0     -1000.0     -1000.0     -1000.0     -1000.0     -1000.0     -1000.0     -1000.0     -1000.0    
      -1000.0     -1000.0     -1000.0     -1000.0     -1000.0     -1000.0     -1000.0     -1000.0     -1000.0     -1000.0    
      -1000.0     -1000.0     -1000.0     -1000.0     -1000.0    
 250    458.5       458.5       458.5       458.5       458.5       458.5       458.5       458.5       458.5       458.5    
        458.5       458.5       458.5       458.5       458.5       458.5       458.5       458.5       458.5       458.5    
        458.5       458.5       458.5       458.5       458.5       458.5       458.5       458.5       458.5       458.5    
        458.5       458.5       458.5       458.5       458.5       458.5       458.5       458.5       458.5       458.5    
        458.5       458.5       458.5       458.5       458.5       458.5       458.5       458.5       458.5       458.5    
        38.35       31.59       25.61       19.63       16.49       9.283       6.150       1.735     -0.7450      -1.973    
      -0.6814      -1.658      -1.652     -0.6735       1.371       1.399     -0.1233      -1.158      -1.350      -1.648    
       -1.647      -1.647      -1.658      -1.439     -0.9285      -1.659      -1.619     -0.1350      0.4688      0.8078    
        1.021       1.600       2.260       2.221       3.079       3.914       6.139       2.929       4.297       3.887    
        5.099       7.039       8.539       10.34       11.66       11.98       13.28       13.77       15.67       15.04    
        17.43       19.83       19.23       28.28       25.35       36.80       45.78       71.04       86.29       81.58    
        458.5       458.5       458.5       458.5       458.5       458.5       458.5       458.5       458.5       458.5    
        458.5       458.5       458.5       458.5       458.5       458.5       458.5       458.5       458.5       458.5    
        458.5       458.5       458.5       458.5       458.5       458.5       458.5       458.5       458.5       458.5    
        458.5       458.5       458.5       458.5       458.5    

 HEAD WILL BE SAVED ON UNIT   51 AT END OF TIME STEP    1, STRESS PERIOD    1
1
  VOLUMETRIC BUDGET FOR ENTIRE MODEL AT END OF TIME STEP    1, STRESS PERIOD   1
  ------------------------------------------------------------------------------

     CUMULATIVE VOLUMES      L**3       RATES FOR THIS TIME STEP      L**3/T
     ------------------                 ------------------------

           IN:                                      IN:
           ---                                      ---
             STORAGE =           0.0000               STORAGE =           0.0000
       CONSTANT HEAD =    24837728.0000         CONSTANT HEAD =    24837728.0000
            RECHARGE =       26650.0000              RECHARGE =       26650.0000

            TOTAL IN =    24864378.0000              TOTAL IN =    24864378.0000

          OUT:                                     OUT:
          ----                                     ----
             STORAGE =           0.0000               STORAGE =           0.0000
       CONSTANT HEAD =    24864380.0000         CONSTANT HEAD =    24864380.0000
            RECHARGE =           0.0000              RECHARGE =           0.0000

           TOTAL OUT =    24864380.0000             TOTAL OUT =    24864380.0000

            IN - OUT =          -2.0000              IN - OUT =          -2.0000

 PERCENT DISCREPANCY =          -0.00     PERCENT DISCREPANCY =          -0.00






         TIME SUMMARY AT END OF TIME STEP    1 IN STRESS PERIOD    1
                    SECONDS     MINUTES      HOURS       DAYS        YEARS
                    -----------------------------------------------------------
   TIME STEP LENGTH  86400.      1440.0      24.000      1.0000     2.73785E-03
 STRESS PERIOD TIME  86400.      1440.0      24.000      1.0000     2.73785E-03
         TOTAL TIME  86400.      1440.0      24.000      1.0000     2.73785E-03
1
 FAILURE TO MEET SOLVER CONVERGENCE CRITERIA
 BUDGET PERCENT DISCREPANCY IS   -0.0000
 STOPPING SIMULATION

 Run end date and time (yyyy/mm/dd hh:mm:ss): 2022/02/24 17:12:55
 Elapsed run time:  3.543 Seconds

