                                  MODFLOW-2005     
      U.S. GEOLOGICAL SURVEY MODULAR FINITE-DIFFERENCE GROUND-WATER FLOW MODEL
                            VERSION 1.12.00 2/3/2017

 LIST FILE: base.list
                         UNIT    2

 OPENING base.dis
 FILE TYPE:DIS   UNIT   11   STATUS:OLD    
 FORMAT:FORMATTED              ACCESS:SEQUENTIAL          

 OPENING base.bas
 FILE TYPE:BAS6   UNIT   13   STATUS:OLD    
 FORMAT:FORMATTED              ACCESS:SEQUENTIAL          

 OPENING base.lpf
 FILE TYPE:LPF   UNIT   15   STATUS:OLD    
 FORMAT:FORMATTED              ACCESS:SEQUENTIAL          

 OPENING base.oc
 FILE TYPE:OC   UNIT   14   STATUS:OLD    
 FORMAT:FORMATTED              ACCESS:SEQUENTIAL          

 OPENING base.pcg
 FILE TYPE:PCG   UNIT   27   STATUS:OLD    
 FORMAT:FORMATTED              ACCESS:SEQUENTIAL          

 OPENING base.rch
 FILE TYPE:RCH   UNIT   19   STATUS:OLD    
 FORMAT:FORMATTED              ACCESS:SEQUENTIAL          

 OPENING base.cbc
 FILE TYPE:DATA(BINARY)   UNIT   53   STATUS:REPLACE
 FORMAT:BINARY                 ACCESS:SEQUENTIAL          

 OPENING base.hds
 FILE TYPE:DATA(BINARY)   UNIT   51   STATUS:REPLACE
 FORMAT:BINARY                 ACCESS:SEQUENTIAL          

 BAS -- BASIC PACKAGE, VERSION 7, 5/2/2005 INPUT READ FROM UNIT   13
 
 MODFLOW was compiled using mixed precision
 Precision of REAL variables:           6
 Precision of DOUBLE PRECISION variables:          15

 DISCRETIZATION INPUT DATA READ FROM UNIT   11
 # DIS package for  MODFLOW-2005, generated by Flopy.
    2 LAYERS        50 ROWS        50 COLUMNS
    1 STRESS PERIOD(S) IN SIMULATION
 MODEL TIME UNIT IS DAYS
 MODEL LENGTH UNIT IS METERS
  Confining bed flag for each layer:
   0   0

                     DELR =   1000.00    

                     DELC =   1000.00    



           TOP ELEVATION OF LAYER 1
 READING ON UNIT   11 WITH FORMAT: (50E15.6)           



             MODEL LAYER BOTTOM EL. FOR LAYER   1
 READING ON UNIT   11 WITH FORMAT: (50E15.6)           



             MODEL LAYER BOTTOM EL. FOR LAYER   2
 READING ON UNIT   11 WITH FORMAT: (50E15.6)           


 STRESS PERIOD     LENGTH       TIME STEPS     MULTIPLIER FOR DELT    SS FLAG
 ----------------------------------------------------------------------------
        1         1.000000          1                    1.000         SS

 STEADY-STATE SIMULATION



 
 # BAS6 package for  MODFLOW-2005, generated by Flopy.                           
 THE FREE FORMAT OPTION HAS BEEN SELECTED



                     BOUNDARY ARRAY FOR LAYER   1
 READING ON UNIT   13 WITH FORMAT: (50I10)             



                     BOUNDARY ARRAY FOR LAYER   2
 READING ON UNIT   13 WITH FORMAT: (50I10)             

 AQUIFER HEAD WILL BE SET TO  -999.99     AT ALL NO-FLOW NODES (IBOUND=0).



                       INITIAL HEAD FOR LAYER   1
 READING ON UNIT   13 WITH FORMAT: (50E15.6)           



                       INITIAL HEAD FOR LAYER   2
 READING ON UNIT   13 WITH FORMAT: (50E15.6)           
 # OC package for  MODFLOW-2005, generated by Flopy.

 OUTPUT CONTROL IS SPECIFIED ONLY AT TIME STEPS FOR WHICH OUTPUT IS DESIRED
 COMPACT CELL-BY-CELL BUDGET FILES WILL BE WRITTEN
 AUXILIARY DATA WILL BE SAVED IN CELL-BY-CELL BUDGET FILES
 HEAD PRINT FORMAT CODE IS   0    DRAWDOWN PRINT FORMAT CODE IS   0
 HEADS WILL BE SAVED ON UNIT   51    DRAWDOWNS WILL BE SAVED ON UNIT    0

 LPF -- LAYER-PROPERTY FLOW PACKAGE, VERSION 7, 5/2/2005
         INPUT READ FROM UNIT   15
 # LPF package for  MODFLOW-2005, generated by Flopy.
 CELL-BY-CELL FLOWS WILL BE SAVED ON UNIT   53
 HEAD AT CELLS THAT CONVERT TO DRY= -1.00000E+30
 No named parameters

   LAYER FLAGS:
 LAYER       LAYTYP        LAYAVG         CHANI        LAYVKA        LAYWET
 ---------------------------------------------------------------------------
    1             1             0     0.000E+00             0             0
    2             1             0     0.000E+00             0             0

   INTERPRETATION OF LAYER FLAGS:
                        INTERBLOCK     HORIZONTAL    DATA IN
         LAYER TYPE   TRANSMISSIVITY   ANISOTROPY   ARRAY VKA   WETTABILITY
 LAYER      (LAYTYP)      (LAYAVG)       (CHANI)      (LAYVKA)      (LAYWET)
 ---------------------------------------------------------------------------
    1   CONVERTIBLE      HARMONIC      VARIABLE    VERTICAL K  NON-WETTABLE
    2   CONVERTIBLE      HARMONIC      VARIABLE    VERTICAL K  NON-WETTABLE

 WETTING CAPABILITY IS NOT ACTIVE IN ANY LAYER

    HYD. COND. ALONG ROWS =   10.0000     FOR LAYER   1

   HORIZ. ANI. (COL./ROW) =   1.00000     FOR LAYER   1

      VERTICAL HYD. COND. =   10.0000     FOR LAYER   1

    HYD. COND. ALONG ROWS =   10.0000     FOR LAYER   2

   HORIZ. ANI. (COL./ROW) =   1.00000     FOR LAYER   2

      VERTICAL HYD. COND. =   10.0000     FOR LAYER   2

 RCH -- RECHARGE PACKAGE, VERSION 7, 5/2/2005 INPUT READ FROM UNIT   19
 # RCH package for  MODFLOW-2005, generated by Flopy.
 No named parameters
 OPTION 3 -- RECHARGE TO HIGHEST ACTIVE NODE IN EACH VERTICAL COLUMN


     0 Recharge parameters

 PCG -- CONJUGATE-GRADIENT SOLUTION PACKAGE, VERSION 7, 5/2/2005
 # PCG package for  MODFLOW-2005, generated by Flopy.
 MAXIMUM OF     50 CALLS OF SOLUTION ROUTINE
 MAXIMUM OF     30 INTERNAL ITERATIONS PER CALL TO SOLUTION ROUTINE
 MATRIX PRECONDITIONING TYPE :    1



                                    SOLUTION BY THE CONJUGATE-GRADIENT METHOD
                                   -------------------------------------------
                    MAXIMUM NUMBER OF CALLS TO PCG ROUTINE =       50
                        MAXIMUM ITERATIONS PER CALL TO PCG =       30
                               MATRIX PRECONDITIONING TYPE =        1
        RELAXATION FACTOR (ONLY USED WITH PRECOND. TYPE 1) =    0.10000E+01
 PARAMETER OF POLYNOMIAL PRECOND. = 2 (2) OR IS CALCULATED :        0
                         HEAD CHANGE CRITERION FOR CLOSURE =    0.10000E-04
                     RESIDUAL CHANGE CRITERION FOR CLOSURE =    0.10000E-04
            PCG HEAD AND RESIDUAL CHANGE PRINTOUT INTERVAL =      999
     PRINTING FROM SOLVER IS LIMITED(1) OR SUPPRESSED (>1) =        3
                            STEADY-STATE DAMPING PARAMETER =    0.10000E+01
                               TRANSIENT DAMPING PARAMETER =    0.10000E+01
1
                            STRESS PERIOD NO.    1, LENGTH =   1.000000    
                            -----------------------------------------------

                              NUMBER OF TIME STEPS =     1

                               MULTIPLIER FOR DELT =     1.000

                            INITIAL TIME STEP SIZE =   1.000000    



                           RECHARGE
 READING ON UNIT   19 WITH FORMAT: (50E15.6)           
 
 SOLVING FOR HEAD 

 OUTPUT CONTROL FOR STRESS PERIOD    1   TIME STEP    1
    PRINT HEAD FOR ALL LAYERS
    PRINT BUDGET
    SAVE HEAD FOR ALL LAYERS
    SAVE BUDGET
 UBDSV2 SAVING "   CONSTANT HEAD" ON UNIT  53 AT TIME STEP  1, STRESS PERIOD   1
 UBDSV1 SAVING "FLOW RIGHT FACE " ON UNIT  53 AT TIME STEP  1, STRESS PERIOD   1
 UBDSV1 SAVING "FLOW FRONT FACE " ON UNIT  53 AT TIME STEP  1, STRESS PERIOD   1
 UBDSV1 SAVING "FLOW LOWER FACE " ON UNIT  53 AT TIME STEP  1, STRESS PERIOD   1
1
              HEAD IN LAYER   1 AT END OF TIME STEP   1 IN STRESS PERIOD    1
  ---------------------------------------------------------------------------

            1           2           3           4           5           6           7           8           9          10
           11          12          13          14          15          16          17          18          19          20
           21          22          23          24          25          26          27          28          29          30
           31          32          33          34          35          36          37          38          39          40
           41          42          43          44          45          46          47          48          49          50
 ........................................................................................................................
   1  -1000.0     -1000.0     -1000.0     -1000.0     -1000.0     -1000.0     -1000.0     -1000.0     -1000.0     -1000.0    
      -1000.0     -1000.0     -1000.0     -1000.0     -1000.0     -1000.0     -1000.0     -1000.0     -1000.0     -1000.0    
      -1000.0     -1000.0     -1000.0     -1000.0     -1000.0     -1000.0     -1000.0     -1000.0     -1000.0     -1000.0    
      -1000.0     -1000.0     -1000.0     -1000.0     -1000.0     -1000.0     -1000.0     -1000.0     -1000.0     -1000.0    
      -1000.0     -1000.0     -1000.0     -1000.0     -1000.0     -1000.0     -1000.0     -1000.0     -1000.0     -1000.0    
   2  -1000.0     -1000.0     -1000.0     -1000.0     -1000.0     -1000.0     -1000.0     -1000.0     -1000.0     -1000.0    
      -1000.0     -1000.0     -1000.0     -1000.0     -1000.0     -1000.0     -1000.0     -1000.0     -1000.0     -1000.0    
      -1000.0     -1000.0     -1000.0       82.07       81.96       81.78       81.58       81.35       81.11       80.87    
        80.64       80.42       80.24       80.12     -1000.0     -1000.0     -1000.0     -1000.0     -1000.0     -1000.0    
      -1000.0     -1000.0     -1000.0     -1000.0     -1000.0     -1000.0     -1000.0     -1000.0     -1000.0     -1000.0    
   3  -1000.0     -1000.0     -1000.0     -1000.0     -1000.0     -1000.0     -1000.0     -1000.0     -1000.0     -1000.0    
      -1000.0     -1000.0     -1000.0     -1000.0     -1000.0     -1000.0     -1000.0     -1000.0     -1000.0     -1000.0    
      -1000.0     -1000.0       82.34       82.19       82.02       81.82       81.60       81.36       81.11       80.86    
        80.62       80.39       80.17       79.99       79.83     -1000.0     -1000.0     -1000.0     -1000.0     -1000.0    
      -1000.0     -1000.0     -1000.0     -1000.0     -1000.0     -1000.0     -1000.0     -1000.0     -1000.0     -1000.0    
   4  -1000.0     -1000.0     -1000.0     -1000.0     -1000.0     -1000.0     -1000.0     -1000.0     -1000.0     -1000.0    
      -1000.0     -1000.0     -1000.0     -1000.0     -1000.0     -1000.0     -1000.0     -1000.0     -1000.0     -1000.0    
      -1000.0     -1000.0       82.48       82.32       82.11       81.88       81.63       81.37       81.11       80.85    
        80.59       80.33       80.08       79.85       79.67     -1000.0     -1000.0     -1000.0     -1000.0     -1000.0    
      -1000.0     -1000.0     -1000.0     -1000.0     -1000.0     -1000.0     -1000.0     -1000.0     -1000.0     -1000.0    
   5  -1000.0     -1000.0     -1000.0     -1000.0     -1000.0     -1000.0     -1000.0     -1000.0     -1000.0     -1000.0    
      -1000.0     -1000.0     -1000.0     -1000.0     -1000.0     -1000.0     -1000.0       84.32       84.18       83.94    
        83.63       83.26       82.80       82.49       82.22       81.95       81.67       81.40       81.12       80.83    
        80.55       80.26       79.97       79.67       79.32       78.78       78.31       77.87       77.47       77.09    
        76.74       76.44       76.19       76.03     -1000.0     -1000.0     -1000.0     -1000.0     -1000.0     -1000.0    
   6  -1000.0     -1000.0     -1000.0     -1000.0     -1000.0     -1000.0     -1000.0     -1000.0     -1000.0     -1000.0    
      -1000.0     -1000.0     -1000.0     -1000.0     -1000.0     -1000.0     -1000.0       84.47       84.28       84.01    
        83.70       83.34       82.97       82.63       82.32       82.02       81.72       81.42       81.12       80.82    
        80.51       80.20       79.88       79.53       79.15       78.71       78.26       77.84       77.44       77.06    
        76.70       76.38       76.10       75.87       75.66     -1000.0     -1000.0     -1000.0     -1000.0     -1000.0    
   7  -1000.0     -1000.0     -1000.0     -1000.0     -1000.0     -1000.0     -1000.0     -1000.0     -1000.0     -1000.0    
      -1000.0     -1000.0     -1000.0       86.12       85.95       85.65       85.27       84.79       84.45       84.13    
        83.80       83.44       83.09       82.74       82.41       82.09       81.77       81.45       81.13       80.81    
        80.48       80.14       79.80       79.43       79.04       78.63       78.21       77.79       77.38       76.99    
        76.62       76.28       75.96       75.68       75.46     -1000.0     -1000.0     -1000.0     -1000.0     -1000.0    
   8  -1000.0     -1000.0     -1000.0     -1000.0     -1000.0     -1000.0     -1000.0     -1000.0     -1000.0     -1000.0    
      -1000.0     -1000.0       86.40       86.25       86.03       85.73       85.37       84.98       84.61       84.26    
        83.91       83.55       83.19       82.84       82.49       82.15       81.81       81.48       81.14       80.80    
        80.45       80.10       79.73       79.36       78.96       78.55       78.14       77.72       77.31       76.91    
        76.52       76.15       75.78       75.42       75.03       74.48       74.09       73.88     -1000.0     -1000.0    
   9  -1000.0     -1000.0     -1000.0     -1000.0     -1000.0     -1000.0     -1000.0     -1000.0     -1000.0     -1000.0    
      -1000.0     -1000.0       86.51       86.39       86.16       85.85       85.50       85.13       84.76       84.39    
        84.03       83.66       83.29       82.93       82.57       82.21       81.86       81.50       81.15       80.79    
        80.43       80.06       79.68       79.29       78.89       78.48       78.07       77.65       77.23       76.82    
        76.41       76.00       75.60       75.19       74.76       74.30       73.92       73.67     -1000.0     -1000.0    
  10  -1000.0     -1000.0     -1000.0     -1000.0     -1000.0     -1000.0     -1000.0     -1000.0     -1000.0     -1000.0    
      -1000.0     -1000.0       86.71       86.57       86.33       86.01       85.65       85.28       84.90       84.52    
        84.14       83.76       83.39       83.01       82.64       82.27       81.90       81.53       81.16       80.79    
        80.41       80.03       79.64       79.24       78.83       78.42       78.00       77.57       77.14       76.71    
        76.29       75.86       75.42       74.98       74.52       74.05       73.61       73.20       72.76     -1000.0    
  11  -1000.0     -1000.0     -1000.0     -1000.0     -1000.0     -1000.0     -1000.0     -1000.0     -1000.0     -1000.0    
      -1000.0     -1000.0       86.98       86.82       86.55       86.19       85.81       85.43       85.04       84.65    
        84.25       83.86       83.48       83.09       82.71       82.32       81.94       81.56       81.18       80.79    
        80.40       80.00       79.60       79.19       78.78       78.35       77.93       77.49       77.05       76.61    
        76.16       75.71       75.25       74.77       74.28       73.78       73.27       72.76       72.31     -1000.0    
  12  -1000.0     -1000.0     -1000.0     -1000.0     -1000.0     -1000.0     -1000.0     -1000.0     -1000.0     -1000.0    
      -1000.0     -1000.0       87.37       87.13       86.79       86.39       85.99       85.58       85.17       84.77    
        84.36       83.96       83.56       83.16       82.77       82.37       81.98       81.58       81.19       80.79    
        80.39       79.98       79.57       79.15       78.73       78.30       77.86       77.41       76.96       76.51    
        76.04       75.57       75.08       74.58       74.06       73.51       72.92       72.25       71.41       70.00    
  13  -1000.0     -1000.0     -1000.0     -1000.0     -1000.0       90.67       90.54       90.32       90.03       89.67    
        89.22       88.67       87.96       87.48       87.05       86.60       86.16       85.73       85.31       84.89    
        84.47       84.06       83.65       83.24       82.83       82.42       82.02       81.61       81.20       80.79    
        80.38       79.96       79.54       79.12       78.68       78.24       77.80       77.34       76.88       76.41    
        75.93       75.44       74.93       74.41       73.85       73.27       72.63       71.91       71.06       70.00    
  14  -1000.0     -1000.0     -1000.0       91.03       90.94       90.76       90.58       90.35       90.06       89.70    
        89.28       88.79       88.25       87.75       87.28       86.79       86.33       85.88       85.44       85.00    
        84.57       84.15       83.72       83.30       82.89       82.47       82.05       81.64       81.22       80.80    
        80.38       79.95       79.52       79.08       78.64       78.19       77.74       77.27       76.80       76.32    
        75.83       75.32       74.80       74.25       73.68       73.07       72.42       71.70       70.89       70.00    
  15  -1000.0     -1000.0       91.15       91.08       90.97       90.82       90.63       90.39       90.10       89.76    
        89.36       88.92       88.43       87.95       87.46       86.96       86.48       86.01       85.56       85.11    
        84.67       84.23       83.80       83.37       82.94       82.51       82.09       81.66       81.23       80.80    
        80.37       79.94       79.50       79.05       78.60       78.15       77.68       77.21       76.73       76.24    
        75.73       75.21       74.68       74.12       73.54       72.92       72.27       71.56       70.80       70.00    
  16  -1000.0     -1000.0       91.17       91.12       91.01       90.86       90.67       90.44       90.15       89.82    
        89.45       89.03       88.58       88.10       87.61       87.10       86.61       86.13       85.66       85.21    
        84.75       84.31       83.86       83.42       82.99       82.55       82.12       81.68       81.25       80.81    
        80.37       79.93       79.48       79.03       78.57       78.10       77.63       77.15       76.66       76.16    
        75.65       75.12       74.58       74.01       73.42       72.80       72.15       71.47       70.75       70.00    
  17  -1000.0     -1000.0       91.21       91.16       91.06       90.91       90.72       90.49       90.21       89.89    
        89.53       89.12       88.69       88.23       87.74       87.22       86.72       86.24       85.76       85.29    
        84.83       84.38       83.93       83.48       83.03       82.59       82.15       81.70       81.26       80.82    
        80.37       79.92       79.46       79.00       78.54       78.07       77.59       77.10       76.60       76.10    
        75.58       75.04       74.49       73.92       73.33       72.71       72.07       71.40       70.71       70.00    
  18  -1000.0     -1000.0       91.26       91.20       91.10       90.95       90.76       90.53       90.26       89.95    
        89.60       89.21       88.78       88.33       87.84       87.33       86.82       86.33       85.85       85.37    
        84.90       84.44       83.98       83.53       83.07       82.62       82.17       81.72       81.27       80.82    
        80.37       79.91       79.45       78.98       78.51       78.04       77.55       77.06       76.55       76.04    
        75.51       74.97       74.42       73.85       73.26       72.64       72.01       71.36       70.69       70.00    
  19  -1000.0       91.39       91.33       91.25       91.14       90.99       90.80       90.58       90.31       90.01    
        89.66       89.28       88.86       88.41       87.93       87.41       86.91       86.41       85.92       85.44    
        84.97       84.50       84.03       83.57       83.11       82.65       82.20       81.74       81.28       80.83    
        80.37       79.90       79.44       78.97       78.49       78.01       77.52       77.02       76.51       75.99    
        75.46       74.92       74.36       73.79       73.20       72.59       71.97       71.32       70.67       70.00    
  20  -1000.0       91.41       91.36       91.29       91.17       91.03       90.84       90.62       90.35       90.05    
        89.71       89.34       88.93       88.48       88.00       87.48       86.98       86.48       85.99       85.50    
        85.02       84.55       84.08       83.61       83.15       82.68       82.22       81.75       81.29       80.83    
        80.37       79.90       79.43       78.95       78.47       77.99       77.49       76.99       76.48       75.95    
        75.42       74.87       74.31       73.74       73.15       72.55       71.93       71.30       70.65       70.00    
  21  -1000.0       91.43       91.39       91.31       91.20       91.06       90.87       90.65       90.39       90.09    
        89.76       89.39       88.98       88.54       88.06       87.54       87.03       86.53       86.04       85.55    
        85.07       84.60       84.12       83.65       83.17       82.70       82.23       81.77       81.30       80.83    
        80.37       79.90       79.42       78.94       78.46       77.97       77.47       76.96       76.45       75.92    
        75.38       74.84       74.28       73.70       73.12       72.52       71.90       71.28       70.64       70.00    
  22  -1000.0       91.44       91.41       91.33       91.22       91.08       90.89       90.67       90.42       90.13    
        89.80       89.43       89.02       88.58       88.11       87.59       87.08       86.58       86.09       85.60    
        85.11       84.63       84.15       83.68       83.20       82.72       82.25       81.78       81.31       80.84    
        80.37       79.89       79.42       78.93       78.45       77.95       77.45       76.94       76.42       75.90    
        75.36       74.81       74.25       73.68       73.09       72.49       71.88       71.27       70.64       70.00    
  23  -1000.0       91.45       91.42       91.34       91.23       91.09       90.91       90.69       90.44       90.15    
        89.82       89.46       89.06       88.62       88.14       87.63       87.12       86.62       86.12       85.63    
        85.15       84.66       84.18       83.70       83.22       82.74       82.27       81.79       81.32       80.84    
        80.37       79.89       79.41       78.93       78.44       77.94       77.44       76.93       76.41       75.88    
        75.34       74.79       74.23       73.65       73.07       72.48       71.87       71.26       70.63       70.00    
  24  -1000.0       91.45       91.42       91.34       91.24       91.09       90.92       90.70       90.45       90.16    
        89.84       89.48       89.08       88.64       88.17       87.66       87.15       86.65       86.15       85.66    
        85.17       84.68       84.20       83.72       83.24       82.75       82.28       81.80       81.33       80.85    
        80.37       79.90       79.41       78.93       78.43       77.94       77.43       76.92       76.40       75.87    
        75.33       74.77       74.21       73.64       73.06       72.46       71.86       71.25       70.63       70.00    
  25  -1000.0       91.45       91.41       91.34       91.23       91.09       90.92       90.70       90.46       90.17    
        89.85       89.49       89.09       88.66       88.19       87.67       87.17       86.66       86.16       85.67    
        85.18       84.70       84.21       83.73       83.25       82.76       82.29       81.81       81.33       80.86    
        80.38       79.90       79.42       78.93       78.44       77.94       77.43       76.92       76.39       75.86    
        75.32       74.77       74.21       73.63       73.05       72.46       71.86       71.24       70.63       70.00    
  26  -1000.0       91.44       91.39       91.32       91.22       91.08       90.91       90.70       90.45       90.17    
        89.85       89.49       89.10       88.66       88.19       87.68       87.17       86.67       86.17       85.68    
        85.19       84.70       84.22       83.73       83.25       82.77       82.29       81.82       81.34       80.87    
        80.39       79.91       79.43       78.94       78.44       77.94       77.44       76.92       76.40       75.86    
        75.32       74.77       74.20       73.63       73.05       72.46       71.85       71.24       70.62       70.00    
  27  -1000.0     -1000.0       91.35       91.29       91.20       91.06       90.89       90.68       90.44       90.16    
        89.84       89.48       89.09       88.66       88.19       87.67       87.16       86.66       86.16       85.67    
        85.18       84.70       84.22       83.73       83.25       82.77       82.30       81.82       81.35       80.87    
        80.40       79.92       79.44       78.95       78.46       77.96       77.45       76.93       76.41       75.87    
        75.33       74.78       74.21       73.64       73.05       72.46       71.85       71.24       70.62       70.00    
  28  -1000.0     -1000.0       91.31       91.26       91.17       91.03       90.86       90.66       90.42       90.14    
        89.82       89.47       89.07       88.64       88.17       87.65       87.15       86.65       86.15       85.66    
        85.17       84.69       84.21       83.73       83.25       82.77       82.30       81.83       81.36       80.88    
        80.41       79.93       79.45       78.97       78.48       77.98       77.47       76.95       76.43       75.89    
        75.35       74.79       74.22       73.65       73.06       72.46       71.86       71.24       70.63       70.00    
  29  -1000.0     -1000.0       91.28       91.23       91.14       91.00       90.83       90.62       90.39       90.11    
        89.80       89.44       89.05       88.61       88.14       87.63       87.12       86.62       86.12       85.63    
        85.15       84.67       84.19       83.71       83.24       82.77       82.30       81.83       81.36       80.89    
        80.42       79.95       79.47       78.99       78.50       78.01       77.50       76.98       76.46       75.92    
        75.37       74.81       74.24       73.66       73.07       72.47       71.86       71.25       70.63       70.00    
  30  -1000.0     -1000.0       91.26       91.21       91.10       90.95       90.78       90.58       90.35       90.08    
        89.77       89.41       89.02       88.58       88.10       87.59       87.08       86.58       86.08       85.60    
        85.12       84.64       84.17       83.70       83.23       82.76       82.29       81.83       81.37       80.91    
        80.44       79.97       79.50       79.02       78.53       78.04       77.54       77.02       76.49       75.95    
        75.40       74.84       74.27       73.68       73.09       72.48       71.87       71.25       70.63       70.00    
  31  -1000.0     -1000.0       91.25       91.19       91.07       90.88       90.71       90.53       90.30       90.04    
        89.73       89.38       88.98       88.54       88.06       87.54       87.03       86.53       86.03       85.55    
        85.07       84.60       84.13       83.67       83.21       82.75       82.29       81.83       81.38       80.92    
        80.46       80.00       79.53       79.05       78.57       78.08       77.58       77.06       76.54       76.00    
        75.44       74.88       74.30       73.71       73.11       72.50       71.88       71.26       70.63       70.00    
  32  -1000.0     -1000.0     -1000.0     -1000.0     -1000.0       90.73       90.63       90.47       90.26       90.00    
        89.69       89.34       88.94       88.49       88.01       87.48       86.97       86.47       85.97       85.49    
        85.02       84.55       84.09       83.64       83.18       82.73       82.28       81.83       81.38       80.93    
        80.48       80.03       79.56       79.09       78.62       78.13       77.63       77.12       76.59       76.05    
        75.49       74.92       74.33       73.73       73.13       72.51       71.89       71.27       70.64       70.00    
  33  -1000.0     -1000.0     -1000.0     -1000.0     -1000.0       90.63       90.55       90.41       90.22       89.96    
        89.66       89.30       88.89       88.44       87.94       87.41       86.89       86.39       85.90       85.42    
        84.96       84.50       84.05       83.60       83.15       82.71       82.27       81.83       81.39       80.95    
        80.51       80.06       79.60       79.14       78.67       78.18       77.69       77.18       76.66       76.11    
        75.55       74.97       74.38       73.77       73.15       72.53       71.90       71.27       70.64       70.00    
  34  -1000.0     -1000.0     -1000.0     -1000.0     -1000.0       90.57       90.50       90.37       90.18       89.94    
        89.63       89.27       88.84       88.38       87.87       87.32       86.80       86.30       85.81       85.34    
        84.88       84.43       83.99       83.55       83.12       82.69       82.26       81.83       81.40       80.97    
        80.53       80.09       79.64       79.19       78.73       78.25       77.76       77.26       76.74       76.19    
        75.62       75.03       74.43       73.81       73.18       72.55       71.91       71.28       70.64       70.00    
  35  -1000.0     -1000.0     -1000.0     -1000.0     -1000.0       90.53       90.47       90.35       90.16       89.92    
        89.61       89.24       88.80       88.31       87.77       87.22       86.69       86.18       85.71       85.25    
        84.80       84.36       83.93       83.50       83.08       82.66       82.24       81.83       81.41       80.98    
        80.56       80.13       79.69       79.25       78.79       78.33       77.85       77.35       76.83       76.29    
        75.71       75.11       74.49       73.85       73.20       72.56       71.91       71.27       70.64       70.00    
  36  -1000.0     -1000.0     -1000.0     -1000.0     -1000.0       90.50       90.45       90.33       90.16       89.93    
        89.62       89.23       88.76       88.23       87.65       87.07       86.54       86.05       85.58       85.13    
        84.70       84.28       83.86       83.45       83.04       82.63       82.23       81.82       81.41       81.00    
        80.59       80.17       79.74       79.31       78.87       78.42       77.95       77.46       76.95       76.41    
        75.82       75.20       74.55       73.89       73.23       72.56       71.91       71.26       70.63       70.00    
  37  -1000.0     -1000.0     -1000.0     -1000.0     -1000.0       90.49       90.44       90.34       90.18       89.96    
        89.66       89.26       88.74       88.14       87.49       86.88       86.35       85.87       85.43       85.01    
        84.59       84.19       83.79       83.39       82.99       82.60       82.21       81.81       81.42       81.02    
        80.62       80.21       79.80       79.38       78.95       78.51       78.06       77.60       77.10       76.56    
        75.97       75.31       74.63       73.93       73.24       72.55       71.88       71.23       70.61       70.00    
  38  -1000.0     -1000.0     -1000.0     -1000.0     -1000.0       90.49       90.44       90.35       90.22       90.02    
        89.75       89.37       88.74       88.06       87.24       86.61       86.11       85.67       85.26       84.86    
        84.47       84.09       83.70       83.32       82.94       82.56       82.19       81.81       81.43       81.04    
        80.65       80.26       79.86       79.45       79.04       78.62       78.20       77.75       77.29       76.77    
        76.17       75.44       74.70       73.97       73.25       72.53       71.82       71.18       70.58       70.00    
  39  -1000.0     -1000.0     -1000.0     -1000.0     -1000.0     -1000.0       90.43       90.37       90.27       90.12    
        89.92       89.67     -1000.0     -1000.0       86.74       86.20       85.80       85.43       85.07       84.71    
        84.35       83.99       83.62       83.25       82.89       82.53       82.17       81.80       81.44       81.07    
        80.69       80.31       79.93       79.53       79.14       78.74       78.34       77.93       77.52       77.06    
        76.50       75.57       74.76       73.99       73.24       72.48       71.67       71.08       70.52       70.00    
  40  -1000.0     -1000.0     -1000.0     -1000.0     -1000.0     -1000.0       90.43       90.39       90.32       90.22    
        90.09     -1000.0     -1000.0     -1000.0     -1000.0       85.65       85.45       85.18       84.88       84.56    
        84.23       83.88       83.53       83.18       82.83       82.49       82.14       81.80       81.45       81.10    
        80.74       80.37       79.99       79.61       79.23       78.86       78.49       78.13       77.78       77.45    
        77.19     -1000.0     -1000.0     -1000.0     -1000.0     -1000.0       71.30       70.93       70.42       70.00    
  41  -1000.0     -1000.0     -1000.0     -1000.0     -1000.0     -1000.0     -1000.0       90.40       90.36       90.31    
      -1000.0     -1000.0     -1000.0     -1000.0     -1000.0       85.29       85.17       84.96       84.71       84.42    
        84.11       83.78       83.45       83.11       82.78       82.45       82.12       81.79       81.46       81.13    
        80.79       80.43       80.06       79.69       79.32       78.97       78.62       78.30       78.01       77.77    
        77.62     -1000.0     -1000.0     -1000.0     -1000.0     -1000.0     -1000.0     -1000.0       70.21       70.00    
  42  -1000.0     -1000.0     -1000.0     -1000.0     -1000.0     -1000.0     -1000.0     -1000.0     -1000.0     -1000.0    
      -1000.0     -1000.0     -1000.0     -1000.0     -1000.0       85.07       84.96       84.79       84.57       84.30    
        84.01       83.69       83.36       83.03       82.71       82.40       82.09       81.79       81.48       81.17    
        80.85       80.50       80.14       79.76       79.40       79.06       78.73       78.44       78.20       78.01    
        77.90     -1000.0     -1000.0     -1000.0     -1000.0     -1000.0     -1000.0     -1000.0     -1000.0     -1000.0    
  43  -1000.0     -1000.0     -1000.0     -1000.0     -1000.0     -1000.0     -1000.0     -1000.0     -1000.0     -1000.0    
      -1000.0     -1000.0     -1000.0     -1000.0     -1000.0       84.94       84.82       84.67       84.47       84.22    
        83.93       83.61       83.27       82.95       82.64       82.34       82.06       81.78       81.51       81.23    
        80.93       80.60       80.21       79.83       79.46       79.12       78.81       78.54       78.32       78.15    
        78.07     -1000.0     -1000.0     -1000.0     -1000.0     -1000.0     -1000.0     -1000.0     -1000.0     -1000.0    
  44  -1000.0     -1000.0     -1000.0     -1000.0     -1000.0     -1000.0     -1000.0     -1000.0     -1000.0     -1000.0    
      -1000.0     -1000.0     -1000.0     -1000.0     -1000.0     -1000.0       84.71       84.60       84.41       84.17    
        83.89       83.55       83.15       82.85       82.55       82.27       82.02       81.78       81.54       81.30    
        81.05       80.75       80.28       79.87       79.50       79.16       78.86       78.59       78.38       78.23    
        78.15     -1000.0     -1000.0     -1000.0     -1000.0     -1000.0     -1000.0     -1000.0     -1000.0     -1000.0    
  45  -1000.0     -1000.0     -1000.0     -1000.0     -1000.0     -1000.0     -1000.0     -1000.0     -1000.0     -1000.0    
      -1000.0     -1000.0     -1000.0     -1000.0     -1000.0     -1000.0     -1000.0     -1000.0     -1000.0     -1000.0    
      -1000.0     -1000.0       82.95       82.74       82.43       82.18       81.97       81.77       81.57       81.38    
        81.21       81.07     -1000.0     -1000.0     -1000.0     -1000.0     -1000.0     -1000.0     -1000.0     -1000.0    
      -1000.0     -1000.0     -1000.0     -1000.0     -1000.0     -1000.0     -1000.0     -1000.0     -1000.0     -1000.0    
  46  -1000.0     -1000.0     -1000.0     -1000.0     -1000.0     -1000.0     -1000.0     -1000.0     -1000.0     -1000.0    
      -1000.0     -1000.0     -1000.0     -1000.0     -1000.0     -1000.0     -1000.0     -1000.0     -1000.0     -1000.0    
      -1000.0     -1000.0     -1000.0     -1000.0       82.24       82.06       81.90       81.75       81.60       81.46    
        81.33       81.24     -1000.0     -1000.0     -1000.0     -1000.0     -1000.0     -1000.0     -1000.0     -1000.0    
      -1000.0     -1000.0     -1000.0     -1000.0     -1000.0     -1000.0     -1000.0     -1000.0     -1000.0     -1000.0    
  47  -1000.0     -1000.0     -1000.0     -1000.0     -1000.0     -1000.0     -1000.0     -1000.0     -1000.0     -1000.0    
      -1000.0     -1000.0     -1000.0     -1000.0     -1000.0     -1000.0     -1000.0     -1000.0     -1000.0     -1000.0    
      -1000.0     -1000.0     -1000.0     -1000.0     -1000.0       81.91       81.83       81.73       81.62       81.51    
        81.41       81.33     -1000.0     -1000.0     -1000.0     -1000.0     -1000.0     -1000.0     -1000.0     -1000.0    
      -1000.0     -1000.0     -1000.0     -1000.0     -1000.0     -1000.0     -1000.0     -1000.0     -1000.0     -1000.0    
  48  -1000.0     -1000.0     -1000.0     -1000.0     -1000.0     -1000.0     -1000.0     -1000.0     -1000.0     -1000.0    
      -1000.0     -1000.0     -1000.0     -1000.0     -1000.0     -1000.0     -1000.0     -1000.0     -1000.0     -1000.0    
      -1000.0     -1000.0     -1000.0     -1000.0     -1000.0       81.83       81.78       81.71       81.64       81.56    
        81.49     -1000.0     -1000.0     -1000.0     -1000.0     -1000.0     -1000.0     -1000.0     -1000.0     -1000.0    
      -1000.0     -1000.0     -1000.0     -1000.0     -1000.0     -1000.0     -1000.0     -1000.0     -1000.0     -1000.0    
  49  -1000.0     -1000.0     -1000.0     -1000.0     -1000.0     -1000.0     -1000.0     -1000.0     -1000.0     -1000.0    
      -1000.0     -1000.0     -1000.0     -1000.0     -1000.0     -1000.0     -1000.0     -1000.0     -1000.0     -1000.0    
      -1000.0     -1000.0     -1000.0     -1000.0     -1000.0       81.80       81.76       81.71       81.65       81.61    
      -1000.0     -1000.0     -1000.0     -1000.0     -1000.0     -1000.0     -1000.0     -1000.0     -1000.0     -1000.0    
      -1000.0     -1000.0     -1000.0     -1000.0     -1000.0     -1000.0     -1000.0     -1000.0     -1000.0     -1000.0    
  50  -1000.0     -1000.0     -1000.0     -1000.0     -1000.0     -1000.0     -1000.0     -1000.0     -1000.0     -1000.0    
      -1000.0     -1000.0     -1000.0     -1000.0     -1000.0     -1000.0     -1000.0     -1000.0     -1000.0     -1000.0    
      -1000.0     -1000.0     -1000.0     -1000.0     -1000.0     -1000.0     -1000.0     -1000.0     -1000.0     -1000.0    
      -1000.0     -1000.0     -1000.0     -1000.0     -1000.0     -1000.0     -1000.0     -1000.0     -1000.0     -1000.0    
      -1000.0     -1000.0     -1000.0     -1000.0     -1000.0     -1000.0     -1000.0     -1000.0     -1000.0     -1000.0    
1
              HEAD IN LAYER   2 AT END OF TIME STEP   1 IN STRESS PERIOD    1
  ---------------------------------------------------------------------------

            1           2           3           4           5           6           7           8           9          10
           11          12          13          14          15          16          17          18          19          20
           21          22          23          24          25          26          27          28          29          30
           31          32          33          34          35          36          37          38          39          40
           41          42          43          44          45          46          47          48          49          50
 ........................................................................................................................
   1  -1000.0     -1000.0     -1000.0     -1000.0     -1000.0     -1000.0     -1000.0     -1000.0     -1000.0     -1000.0    
      -1000.0     -1000.0     -1000.0     -1000.0     -1000.0     -1000.0     -1000.0     -1000.0     -1000.0     -1000.0    
      -1000.0     -1000.0     -1000.0     -1000.0     -1000.0     -1000.0     -1000.0     -1000.0     -1000.0     -1000.0    
      -1000.0     -1000.0     -1000.0     -1000.0     -1000.0     -1000.0     -1000.0     -1000.0     -1000.0     -1000.0    
      -1000.0     -1000.0     -1000.0     -1000.0     -1000.0     -1000.0     -1000.0     -1000.0     -1000.0     -1000.0    
   2  -1000.0     -1000.0     -1000.0     -1000.0     -1000.0     -1000.0     -1000.0     -1000.0     -1000.0     -1000.0    
      -1000.0     -1000.0     -1000.0     -1000.0     -1000.0     -1000.0     -1000.0     -1000.0     -1000.0     -1000.0    
      -1000.0     -1000.0     -1000.0       82.07       81.96       81.78       81.58       81.35       81.11       80.87    
        80.64       80.42       80.24       80.12     -1000.0     -1000.0     -1000.0     -1000.0     -1000.0     -1000.0    
      -1000.0     -1000.0     -1000.0     -1000.0     -1000.0     -1000.0     -1000.0     -1000.0     -1000.0     -1000.0    
   3  -1000.0     -1000.0     -1000.0     -1000.0     -1000.0     -1000.0     -1000.0     -1000.0     -1000.0     -1000.0    
      -1000.0     -1000.0     -1000.0     -1000.0     -1000.0     -1000.0     -1000.0     -1000.0     -1000.0     -1000.0    
      -1000.0     -1000.0       82.34       82.19       82.02       81.82       81.60       81.36       81.11       80.86    
        80.62       80.39       80.17       79.99       79.83     -1000.0     -1000.0     -1000.0     -1000.0     -1000.0    
      -1000.0     -1000.0     -1000.0     -1000.0     -1000.0     -1000.0     -1000.0     -1000.0     -1000.0     -1000.0    
   4  -1000.0     -1000.0     -1000.0     -1000.0     -1000.0     -1000.0     -1000.0     -1000.0     -1000.0     -1000.0    
      -1000.0     -1000.0     -1000.0     -1000.0     -1000.0     -1000.0     -1000.0     -1000.0     -1000.0     -1000.0    
      -1000.0     -1000.0       82.48       82.32       82.11       81.88       81.63       81.37       81.11       80.85    
        80.59       80.33       80.08       79.85       79.67     -1000.0     -1000.0     -1000.0     -1000.0     -1000.0    
      -1000.0     -1000.0     -1000.0     -1000.0     -1000.0     -1000.0     -1000.0     -1000.0     -1000.0     -1000.0    
   5  -1000.0     -1000.0     -1000.0     -1000.0     -1000.0     -1000.0     -1000.0     -1000.0     -1000.0     -1000.0    
      -1000.0     -1000.0     -1000.0     -1000.0     -1000.0     -1000.0     -1000.0       84.32       84.18       83.94    
        83.63       83.26       82.80       82.49       82.22       81.95       81.67       81.40       81.12       80.83    
        80.55       80.26       79.97       79.67       79.32       78.78       78.31       77.87       77.47       77.09    
        76.74       76.44       76.19       76.03     -1000.0     -1000.0     -1000.0     -1000.0     -1000.0     -1000.0    
   6  -1000.0     -1000.0     -1000.0     -1000.0     -1000.0     -1000.0     -1000.0     -1000.0     -1000.0     -1000.0    
      -1000.0     -1000.0     -1000.0     -1000.0     -1000.0     -1000.0     -1000.0       84.47       84.28       84.01    
        83.70       83.34       82.97       82.63       82.32       82.02       81.72       81.42       81.12       80.82    
        80.51       80.20       79.88       79.53       79.15       78.71       78.26       77.84       77.44       77.06    
        76.70       76.38       76.10       75.87       75.66     -1000.0     -1000.0     -1000.0     -1000.0     -1000.0    
   7  -1000.0     -1000.0     -1000.0     -1000.0     -1000.0     -1000.0     -1000.0     -1000.0     -1000.0     -1000.0    
      -1000.0     -1000.0     -1000.0       86.12       85.95       85.65       85.27       84.79       84.45       84.13    
        83.80       83.44       83.09       82.74       82.41       82.09       81.77       81.45       81.13       80.81    
        80.48       80.14       79.80       79.43       79.04       78.63       78.21       77.79       77.38       76.99    
        76.62       76.28       75.96       75.68       75.46     -1000.0     -1000.0     -1000.0     -1000.0     -1000.0    
   8  -1000.0     -1000.0     -1000.0     -1000.0     -1000.0     -1000.0     -1000.0     -1000.0     -1000.0     -1000.0    
      -1000.0     -1000.0       86.40       86.25       86.03       85.73       85.37       84.98       84.61       84.26    
        83.91       83.55       83.19       82.84       82.49       82.15       81.81       81.48       81.14       80.80    
        80.45       80.10       79.73       79.36       78.96       78.55       78.14       77.72       77.31       76.91    
        76.52       76.15       75.78       75.42       75.03       74.48       74.09       73.88     -1000.0     -1000.0    
   9  -1000.0     -1000.0     -1000.0     -1000.0     -1000.0     -1000.0     -1000.0     -1000.0     -1000.0     -1000.0    
      -1000.0     -1000.0       86.51       86.39       86.16       85.85       85.50       85.13       84.76       84.39    
        84.03       83.66       83.29       82.93       82.57       82.21       81.86       81.50       81.15       80.79    
        80.43       80.06       79.68       79.29       78.89       78.48       78.07       77.65       77.23       76.82    
        76.41       76.00       75.60       75.19       74.76       74.30       73.92       73.67     -1000.0     -1000.0    
  10  -1000.0     -1000.0     -1000.0     -1000.0     -1000.0     -1000.0     -1000.0     -1000.0     -1000.0     -1000.0    
      -1000.0     -1000.0       86.70       86.57       86.33       86.01       85.65       85.28       84.90       84.52    
        84.14       83.76       83.39       83.01       82.64       82.27       81.90       81.53       81.16       80.79    
        80.41       80.03       79.64       79.24       78.83       78.42       78.00       77.57       77.14       76.71    
        76.29       75.86       75.42       74.98       74.52       74.05       73.61       73.20       72.76     -1000.0    
  11  -1000.0     -1000.0     -1000.0     -1000.0     -1000.0     -1000.0     -1000.0     -1000.0     -1000.0     -1000.0    
      -1000.0     -1000.0       86.98       86.82       86.55       86.19       85.81       85.43       85.04       84.65    
        84.25       83.86       83.48       83.09       82.71       82.32       81.94       81.56       81.18       80.79    
        80.40       80.00       79.60       79.19       78.78       78.35       77.93       77.49       77.05       76.61    
        76.16       75.71       75.25       74.77       74.28       73.78       73.27       72.76       72.31     -1000.0    
  12  -1000.0     -1000.0     -1000.0     -1000.0     -1000.0     -1000.0     -1000.0     -1000.0     -1000.0     -1000.0    
      -1000.0     -1000.0       87.37       87.13       86.79       86.39       85.99       85.58       85.17       84.77    
        84.36       83.96       83.56       83.16       82.77       82.37       81.98       81.58       81.19       80.79    
        80.39       79.98       79.57       79.15       78.73       78.30       77.86       77.41       76.96       76.51    
        76.04       75.57       75.08       74.58       74.06       73.51       72.92       72.25       71.41       70.00    
  13  -1000.0     -1000.0     -1000.0     -1000.0     -1000.0       90.67       90.54       90.32       90.03       89.67    
        89.22       88.67       87.96       87.48       87.05       86.60       86.16       85.73       85.31       84.89    
        84.47       84.06       83.65       83.24       82.83       82.42       82.02       81.61       81.20       80.79    
        80.38       79.96       79.54       79.12       78.68       78.24       77.79       77.34       76.88       76.41    
        75.93       75.44       74.93       74.41       73.85       73.27       72.63       71.91       71.06       70.00    
  14  -1000.0     -1000.0     -1000.0       91.03       90.94       90.76       90.58       90.35       90.06       89.70    
        89.28       88.79       88.25       87.75       87.28       86.79       86.33       85.88       85.44       85.00    
        84.57       84.15       83.72       83.30       82.89       82.47       82.05       81.64       81.22       80.80    
        80.38       79.95       79.52       79.08       78.64       78.19       77.74       77.27       76.80       76.32    
        75.83       75.32       74.80       74.25       73.68       73.07       72.42       71.70       70.89       70.00    
  15  -1000.0     -1000.0       91.15       91.08       90.97       90.82       90.63       90.39       90.10       89.76    
        89.36       88.92       88.43       87.95       87.46       86.96       86.48       86.01       85.56       85.11    
        84.67       84.23       83.80       83.37       82.94       82.51       82.09       81.66       81.23       80.80    
        80.37       79.94       79.50       79.05       78.60       78.15       77.68       77.21       76.73       76.24    
        75.73       75.21       74.68       74.12       73.54       72.92       72.27       71.56       70.80       70.00    
  16  -1000.0     -1000.0       91.17       91.12       91.01       90.86       90.67       90.44       90.15       89.82    
        89.45       89.03       88.58       88.10       87.61       87.10       86.61       86.13       85.66       85.21    
        84.75       84.31       83.86       83.42       82.99       82.55       82.12       81.68       81.25       80.81    
        80.37       79.93       79.48       79.03       78.57       78.10       77.63       77.15       76.66       76.16    
        75.65       75.12       74.58       74.01       73.42       72.80       72.15       71.47       70.75       70.00    
  17  -1000.0     -1000.0       91.21       91.16       91.06       90.91       90.72       90.49       90.21       89.89    
        89.53       89.12       88.69       88.23       87.74       87.22       86.72       86.24       85.76       85.29    
        84.83       84.38       83.93       83.48       83.03       82.59       82.15       81.70       81.26       80.82    
        80.37       79.92       79.46       79.00       78.54       78.07       77.59       77.10       76.60       76.10    
        75.58       75.04       74.49       73.92       73.33       72.71       72.07       71.40       70.71       70.00    
  18  -1000.0     -1000.0       91.26       91.20       91.10       90.95       90.76       90.53       90.26       89.95    
        89.60       89.21       88.78       88.33       87.84       87.33       86.82       86.33       85.85       85.37    
        84.90       84.44       83.98       83.53       83.07       82.62       82.17       81.72       81.27       80.82    
        80.37       79.91       79.45       78.98       78.51       78.04       77.55       77.06       76.55       76.04    
        75.51       74.97       74.42       73.85       73.26       72.64       72.01       71.36       70.69       70.00    
  19  -1000.0       91.39       91.33       91.25       91.14       90.99       90.80       90.58       90.31       90.01    
        89.66       89.28       88.86       88.41       87.93       87.41       86.91       86.41       85.92       85.44    
        84.97       84.50       84.03       83.57       83.11       82.65       82.20       81.74       81.28       80.83    
        80.37       79.90       79.44       78.97       78.49       78.01       77.52       77.02       76.51       75.99    
        75.46       74.92       74.36       73.79       73.20       72.59       71.97       71.32       70.67       70.00    
  20  -1000.0       91.41       91.36       91.29       91.17       91.03       90.84       90.62       90.35       90.05    
        89.71       89.34       88.93       88.48       88.00       87.48       86.98       86.48       85.99       85.50    
        85.02       84.55       84.08       83.61       83.15       82.68       82.22       81.75       81.29       80.83    
        80.37       79.90       79.43       78.95       78.47       77.99       77.49       76.99       76.48       75.95    
        75.42       74.87       74.31       73.74       73.15       72.55       71.93       71.30       70.65       70.00    
  21  -1000.0       91.43       91.39       91.31       91.20       91.05       90.87       90.65       90.39       90.09    
        89.76       89.39       88.98       88.54       88.06       87.54       87.03       86.53       86.04       85.55    
        85.07       84.60       84.12       83.65       83.17       82.70       82.23       81.77       81.30       80.83    
        80.37       79.90       79.42       78.94       78.46       77.97       77.47       76.96       76.45       75.92    
        75.38       74.84       74.28       73.70       73.12       72.52       71.90       71.28       70.64       70.00    
  22  -1000.0       91.44       91.41       91.33       91.22       91.08       90.89       90.67       90.42       90.13    
        89.80       89.43       89.02       88.58       88.11       87.59       87.08       86.58       86.09       85.60    
        85.11       84.63       84.15       83.68       83.20       82.72       82.25       81.78       81.31       80.84    
        80.37       79.89       79.42       78.93       78.45       77.95       77.45       76.94       76.42       75.90    
        75.36       74.81       74.25       73.68       73.09       72.49       71.88       71.27       70.64       70.00    
  23  -1000.0       91.45       91.41       91.34       91.23       91.09       90.91       90.69       90.44       90.15    
        89.82       89.46       89.06       88.62       88.14       87.63       87.12       86.62       86.12       85.63    
        85.15       84.66       84.18       83.70       83.22       82.74       82.27       81.79       81.32       80.84    
        80.37       79.89       79.41       78.93       78.44       77.94       77.44       76.93       76.41       75.88    
        75.34       74.79       74.23       73.65       73.07       72.48       71.87       71.26       70.63       70.00    
  24  -1000.0       91.45       91.42       91.34       91.24       91.09       90.92       90.70       90.45       90.16    
        89.84       89.48       89.08       88.64       88.17       87.66       87.15       86.65       86.15       85.66    
        85.17       84.68       84.20       83.72       83.24       82.75       82.28       81.80       81.33       80.85    
        80.37       79.90       79.41       78.93       78.43       77.94       77.43       76.92       76.40       75.87    
        75.33       74.77       74.21       73.64       73.06       72.46       71.86       71.25       70.63       70.00    
  25  -1000.0       91.45       91.41       91.34       91.23       91.09       90.92       90.70       90.45       90.17    
        89.85       89.49       89.09       88.66       88.19       87.67       87.17       86.66       86.16       85.67    
        85.18       84.70       84.21       83.73       83.25       82.76       82.29       81.81       81.33       80.86    
        80.38       79.90       79.42       78.93       78.44       77.94       77.43       76.92       76.39       75.86    
        75.32       74.77       74.21       73.63       73.05       72.46       71.86       71.24       70.63       70.00    
  26  -1000.0       91.44       91.39       91.32       91.22       91.08       90.91       90.70       90.45       90.17    
        89.85       89.49       89.10       88.66       88.19       87.68       87.17       86.67       86.17       85.68    
        85.19       84.70       84.22       83.73       83.25       82.77       82.29       81.82       81.34       80.87    
        80.39       79.91       79.43       78.94       78.44       77.94       77.44       76.92       76.40       75.86    
        75.32       74.77       74.20       73.63       73.05       72.46       71.85       71.24       70.62       70.00    
  27  -1000.0     -1000.0       91.35       91.29       91.20       91.06       90.89       90.68       90.44       90.16    
        89.84       89.48       89.09       88.66       88.18       87.67       87.16       86.66       86.16       85.67    
        85.18       84.70       84.22       83.73       83.25       82.77       82.30       81.82       81.35       80.87    
        80.40       79.92       79.44       78.95       78.46       77.96       77.45       76.93       76.41       75.87    
        75.33       74.78       74.21       73.64       73.05       72.46       71.85       71.24       70.62       70.00    
  28  -1000.0     -1000.0       91.31       91.26       91.17       91.03       90.86       90.66       90.42       90.14    
        89.82       89.47       89.07       88.64       88.17       87.65       87.15       86.65       86.15       85.66    
        85.17       84.69       84.21       83.73       83.25       82.77       82.30       81.83       81.36       80.88    
        80.41       79.93       79.45       78.97       78.48       77.98       77.47       76.95       76.43       75.89    
        75.35       74.79       74.22       73.65       73.06       72.46       71.86       71.24       70.63       70.00    
  29  -1000.0     -1000.0       91.28       91.23       91.14       91.00       90.83       90.62       90.39       90.11    
        89.80       89.44       89.05       88.61       88.14       87.63       87.12       86.62       86.12       85.63    
        85.15       84.67       84.19       83.71       83.24       82.77       82.30       81.83       81.36       80.89    
        80.42       79.95       79.47       78.99       78.50       78.01       77.50       76.98       76.46       75.92    
        75.37       74.81       74.24       73.66       73.07       72.47       71.86       71.25       70.63       70.00    
  30  -1000.0     -1000.0       91.26       91.21       91.10       90.95       90.78       90.58       90.35       90.08    
        89.77       89.41       89.02       88.58       88.10       87.59       87.08       86.58       86.08       85.60    
        85.12       84.64       84.17       83.70       83.23       82.76       82.29       81.83       81.37       80.91    
        80.44       79.97       79.50       79.02       78.53       78.04       77.54       77.02       76.49       75.95    
        75.40       74.84       74.27       73.68       73.09       72.48       71.87       71.25       70.63       70.00    
  31  -1000.0     -1000.0       91.25       91.19       91.07       90.88       90.71       90.53       90.30       90.04    
        89.73       89.38       88.98       88.54       88.06       87.54       87.03       86.53       86.03       85.55    
        85.07       84.60       84.13       83.67       83.21       82.75       82.29       81.83       81.38       80.92    
        80.46       80.00       79.53       79.05       78.57       78.08       77.58       77.06       76.54       76.00    
        75.44       74.88       74.30       73.71       73.11       72.50       71.88       71.26       70.63       70.00    
  32  -1000.0     -1000.0     -1000.0     -1000.0     -1000.0       90.73       90.63       90.47       90.26       90.00    
        89.69       89.34       88.94       88.49       88.01       87.48       86.97       86.47       85.97       85.49    
        85.02       84.55       84.09       83.64       83.18       82.73       82.28       81.83       81.38       80.93    
        80.48       80.03       79.56       79.09       78.62       78.13       77.63       77.12       76.59       76.05    
        75.49       74.92       74.33       73.73       73.13       72.51       71.89       71.27       70.64       70.00    
  33  -1000.0     -1000.0     -1000.0     -1000.0     -1000.0       90.63       90.55       90.41       90.22       89.96    
        89.66       89.30       88.89       88.44       87.94       87.41       86.89       86.39       85.90       85.42    
        84.96       84.50       84.05       83.60       83.15       82.71       82.27       81.83       81.39       80.95    
        80.51       80.06       79.60       79.14       78.67       78.18       77.69       77.18       76.66       76.11    
        75.55       74.97       74.38       73.77       73.15       72.53       71.90       71.27       70.64       70.00    
  34  -1000.0     -1000.0     -1000.0     -1000.0     -1000.0       90.57       90.50       90.37       90.18       89.94    
        89.63       89.27       88.84       88.38       87.87       87.32       86.80       86.30       85.81       85.34    
        84.88       84.43       83.99       83.55       83.12       82.69       82.26       81.83       81.40       80.97    
        80.53       80.09       79.64       79.19       78.73       78.25       77.76       77.26       76.74       76.19    
        75.62       75.03       74.43       73.81       73.18       72.55       71.91       71.28       70.64       70.00    
  35  -1000.0     -1000.0     -1000.0     -1000.0     -1000.0       90.53       90.47       90.35       90.16       89.92    
        89.61       89.24       88.80       88.31       87.77       87.22       86.69       86.18       85.71       85.25    
        84.80       84.36       83.93       83.50       83.08       82.66       82.24       81.83       81.41       80.98    
        80.56       80.13       79.69       79.25       78.79       78.33       77.85       77.35       76.83       76.29    
        75.71       75.11       74.49       73.85       73.20       72.56       71.91       71.27       70.64       70.00    
  36  -1000.0     -1000.0     -1000.0     -1000.0     -1000.0       90.50       90.45       90.33       90.16       89.93    
        89.62       89.23       88.76       88.23       87.65       87.07       86.54       86.05       85.58       85.13    
        84.70       84.28       83.86       83.45       83.04       82.63       82.23       81.82       81.41       81.00    
        80.59       80.17       79.74       79.31       78.87       78.42       77.95       77.46       76.95       76.41    
        75.82       75.20       74.55       73.89       73.23       72.56       71.91       71.26       70.63       70.00    
  37  -1000.0     -1000.0     -1000.0     -1000.0     -1000.0       90.49       90.44       90.34       90.18       89.96    
        89.66       89.26       88.74       88.14       87.49       86.88       86.35       85.87       85.43       85.01    
        84.59       84.19       83.79       83.39       82.99       82.60       82.21       81.81       81.42       81.02    
        80.62       80.21       79.80       79.38       78.95       78.51       78.06       77.60       77.10       76.56    
        75.97       75.31       74.63       73.93       73.24       72.55       71.88       71.23       70.61       70.00    
  38  -1000.0     -1000.0     -1000.0     -1000.0     -1000.0       90.49       90.44       90.35       90.22       90.02    
        89.75       89.37       88.74       88.06       87.24       86.61       86.11       85.67       85.26       84.86    
        84.47       84.09       83.70       83.32       82.94       82.56       82.19       81.81       81.43       81.04    
        80.65       80.26       79.86       79.45       79.04       78.62       78.20       77.75       77.29       76.77    
        76.17       75.44       74.70       73.97       73.25       72.53       71.82       71.18       70.58       70.00    
  39  -1000.0     -1000.0     -1000.0     -1000.0     -1000.0     -1000.0       90.43       90.37       90.27       90.12    
        89.92       89.67     -1000.0     -1000.0       86.74       86.20       85.80       85.43       85.07       84.71    
        84.35       83.99       83.62       83.25       82.89       82.53       82.17       81.80       81.44       81.07    
        80.69       80.31       79.93       79.53       79.14       78.74       78.34       77.93       77.52       77.06    
        76.50       75.57       74.76       73.99       73.24       72.48       71.67       71.08       70.52       70.00    
  40  -1000.0     -1000.0     -1000.0     -1000.0     -1000.0     -1000.0       90.43       90.39       90.32       90.22    
        90.09     -1000.0     -1000.0     -1000.0     -1000.0       85.65       85.45       85.18       84.88       84.56    
        84.23       83.88       83.53       83.18       82.83       82.49       82.14       81.80       81.45       81.10    
        80.74       80.37       79.99       79.61       79.23       78.86       78.49       78.13       77.78       77.45    
        77.19     -1000.0     -1000.0     -1000.0     -1000.0     -1000.0       71.30       70.93       70.42       70.00    
  41  -1000.0     -1000.0     -1000.0     -1000.0     -1000.0     -1000.0     -1000.0       90.40       90.36       90.31    
      -1000.0     -1000.0     -1000.0     -1000.0     -1000.0       85.29       85.17       84.96       84.71       84.42    
        84.11       83.78       83.45       83.11       82.78       82.45       82.12       81.79       81.46       81.13    
        80.79       80.43       80.06       79.69       79.32       78.97       78.62       78.30       78.01       77.77    
        77.62     -1000.0     -1000.0     -1000.0     -1000.0     -1000.0     -1000.0     -1000.0       70.21       70.00    
  42  -1000.0     -1000.0     -1000.0     -1000.0     -1000.0     -1000.0     -1000.0     -1000.0     -1000.0     -1000.0    
      -1000.0     -1000.0     -1000.0     -1000.0     -1000.0       85.07       84.96       84.79       84.57       84.30    
        84.01       83.69       83.36       83.03       82.71       82.40       82.09       81.79       81.48       81.17    
        80.85       80.50       80.14       79.76       79.40       79.06       78.73       78.44       78.20       78.01    
        77.90     -1000.0     -1000.0     -1000.0     -1000.0     -1000.0     -1000.0     -1000.0     -1000.0     -1000.0    
  43  -1000.0     -1000.0     -1000.0     -1000.0     -1000.0     -1000.0     -1000.0     -1000.0     -1000.0     -1000.0    
      -1000.0     -1000.0     -1000.0     -1000.0     -1000.0       84.94       84.82       84.67       84.47       84.22    
        83.93       83.61       83.27       82.95       82.64       82.34       82.06       81.78       81.51       81.23    
        80.93       80.60       80.21       79.83       79.46       79.12       78.81       78.54       78.32       78.15    
        78.07     -1000.0     -1000.0     -1000.0     -1000.0     -1000.0     -1000.0     -1000.0     -1000.0     -1000.0    
  44  -1000.0     -1000.0     -1000.0     -1000.0     -1000.0     -1000.0     -1000.0     -1000.0     -1000.0     -1000.0    
      -1000.0     -1000.0     -1000.0     -1000.0     -1000.0     -1000.0       84.71       84.60       84.41       84.17    
        83.89       83.55       83.15       82.85       82.55       82.27       82.02       81.78       81.54       81.30    
        81.05       80.75       80.28       79.87       79.50       79.16       78.86       78.59       78.38       78.23    
        78.15     -1000.0     -1000.0     -1000.0     -1000.0     -1000.0     -1000.0     -1000.0     -1000.0     -1000.0    
  45  -1000.0     -1000.0     -1000.0     -1000.0     -1000.0     -1000.0     -1000.0     -1000.0     -1000.0     -1000.0    
      -1000.0     -1000.0     -1000.0     -1000.0     -1000.0     -1000.0     -1000.0     -1000.0     -1000.0     -1000.0    
      -1000.0     -1000.0       82.95       82.74       82.43       82.18       81.97       81.77       81.57       81.38    
        81.21       81.07     -1000.0     -1000.0     -1000.0     -1000.0     -1000.0     -1000.0     -1000.0     -1000.0    
      -1000.0     -1000.0     -1000.0     -1000.0     -1000.0     -1000.0     -1000.0     -1000.0     -1000.0     -1000.0    
  46  -1000.0     -1000.0     -1000.0     -1000.0     -1000.0     -1000.0     -1000.0     -1000.0     -1000.0     -1000.0    
      -1000.0     -1000.0     -1000.0     -1000.0     -1000.0     -1000.0     -1000.0     -1000.0     -1000.0     -1000.0    
      -1000.0     -1000.0     -1000.0     -1000.0       82.24       82.06       81.90       81.75       81.60       81.46    
        81.33       81.24     -1000.0     -1000.0     -1000.0     -1000.0     -1000.0     -1000.0     -1000.0     -1000.0    
      -1000.0     -1000.0     -1000.0     -1000.0     -1000.0     -1000.0     -1000.0     -1000.0     -1000.0     -1000.0    
  47  -1000.0     -1000.0     -1000.0     -1000.0     -1000.0     -1000.0     -1000.0     -1000.0     -1000.0     -1000.0    
      -1000.0     -1000.0     -1000.0     -1000.0     -1000.0     -1000.0     -1000.0     -1000.0     -1000.0     -1000.0    
      -1000.0     -1000.0     -1000.0     -1000.0     -1000.0       81.91       81.83       81.73       81.62       81.51    
        81.41       81.33     -1000.0     -1000.0     -1000.0     -1000.0     -1000.0     -1000.0     -1000.0     -1000.0    
      -1000.0     -1000.0     -1000.0     -1000.0     -1000.0     -1000.0     -1000.0     -1000.0     -1000.0     -1000.0    
  48  -1000.0     -1000.0     -1000.0     -1000.0     -1000.0     -1000.0     -1000.0     -1000.0     -1000.0     -1000.0    
      -1000.0     -1000.0     -1000.0     -1000.0     -1000.0     -1000.0     -1000.0     -1000.0     -1000.0     -1000.0    
      -1000.0     -1000.0     -1000.0     -1000.0     -1000.0       81.83       81.78       81.71       81.64       81.56    
        81.49     -1000.0     -1000.0     -1000.0     -1000.0     -1000.0     -1000.0     -1000.0     -1000.0     -1000.0    
      -1000.0     -1000.0     -1000.0     -1000.0     -1000.0     -1000.0     -1000.0     -1000.0     -1000.0     -1000.0    
  49  -1000.0     -1000.0     -1000.0     -1000.0     -1000.0     -1000.0     -1000.0     -1000.0     -1000.0     -1000.0    
      -1000.0     -1000.0     -1000.0     -1000.0     -1000.0     -1000.0     -1000.0     -1000.0     -1000.0     -1000.0    
      -1000.0     -1000.0     -1000.0     -1000.0     -1000.0       81.80       81.76       81.71       81.65       81.61    
      -1000.0     -1000.0     -1000.0     -1000.0     -1000.0     -1000.0     -1000.0     -1000.0     -1000.0     -1000.0    
      -1000.0     -1000.0     -1000.0     -1000.0     -1000.0     -1000.0     -1000.0     -1000.0     -1000.0     -1000.0    
  50  -1000.0     -1000.0     -1000.0     -1000.0     -1000.0     -1000.0     -1000.0     -1000.0     -1000.0     -1000.0    
      -1000.0     -1000.0     -1000.0     -1000.0     -1000.0     -1000.0     -1000.0     -1000.0     -1000.0     -1000.0    
      -1000.0     -1000.0     -1000.0     -1000.0     -1000.0     -1000.0     -1000.0     -1000.0     -1000.0     -1000.0    
      -1000.0     -1000.0     -1000.0     -1000.0     -1000.0     -1000.0     -1000.0     -1000.0     -1000.0     -1000.0    
      -1000.0     -1000.0     -1000.0     -1000.0     -1000.0     -1000.0     -1000.0     -1000.0     -1000.0     -1000.0    

 HEAD WILL BE SAVED ON UNIT   51 AT END OF TIME STEP    1, STRESS PERIOD    1
1
  VOLUMETRIC BUDGET FOR ENTIRE MODEL AT END OF TIME STEP    1, STRESS PERIOD   1
  ------------------------------------------------------------------------------

     CUMULATIVE VOLUMES      L**3       RATES FOR THIS TIME STEP      L**3/T
     ------------------                 ------------------------

           IN:                                      IN:
           ---                                      ---
             STORAGE =           0.0000               STORAGE =           0.0000
       CONSTANT HEAD =           0.0000         CONSTANT HEAD =           0.0000
            RECHARGE =       14120.0000              RECHARGE =       14120.0000

            TOTAL IN =       14120.0000              TOTAL IN =       14120.0000

          OUT:                                     OUT:
          ----                                     ----
             STORAGE =           0.0000               STORAGE =           0.0000
       CONSTANT HEAD =       14120.0000         CONSTANT HEAD =       14120.0000
            RECHARGE =           0.0000              RECHARGE =           0.0000

           TOTAL OUT =       14120.0000             TOTAL OUT =       14120.0000

            IN - OUT =           0.0000              IN - OUT =           0.0000

 PERCENT DISCREPANCY =           0.00     PERCENT DISCREPANCY =           0.00






         TIME SUMMARY AT END OF TIME STEP    1 IN STRESS PERIOD    1
                    SECONDS     MINUTES      HOURS       DAYS        YEARS
                    -----------------------------------------------------------
   TIME STEP LENGTH  86400.      1440.0      24.000      1.0000     2.73785E-03
 STRESS PERIOD TIME  86400.      1440.0      24.000      1.0000     2.73785E-03
         TOTAL TIME  86400.      1440.0      24.000      1.0000     2.73785E-03
1

 Run end date and time (yyyy/mm/dd hh:mm:ss): 2022/02/16 11:56:21
 Elapsed run time:  0.125 Seconds

