                                  MODFLOW-2005     
      U.S. GEOLOGICAL SURVEY MODULAR FINITE-DIFFERENCE GROUND-WATER FLOW MODEL
                            VERSION 1.12.00 2/3/2017

 LIST FILE: well.list
                         UNIT    2

 OPENING well.dis
 FILE TYPE:DIS   UNIT   11   STATUS:OLD    
 FORMAT:FORMATTED              ACCESS:SEQUENTIAL          

 OPENING well.bas
 FILE TYPE:BAS6   UNIT   13   STATUS:OLD    
 FORMAT:FORMATTED              ACCESS:SEQUENTIAL          

 OPENING well.lpf
 FILE TYPE:LPF   UNIT   15   STATUS:OLD    
 FORMAT:FORMATTED              ACCESS:SEQUENTIAL          

 OPENING well.oc
 FILE TYPE:OC   UNIT   14   STATUS:OLD    
 FORMAT:FORMATTED              ACCESS:SEQUENTIAL          

 OPENING well.pcg
 FILE TYPE:PCG   UNIT   27   STATUS:OLD    
 FORMAT:FORMATTED              ACCESS:SEQUENTIAL          

 OPENING well.rch
 FILE TYPE:RCH   UNIT   19   STATUS:OLD    
 FORMAT:FORMATTED              ACCESS:SEQUENTIAL          

 OPENING well.str
 FILE TYPE:STR   UNIT  118   STATUS:OLD    
 FORMAT:FORMATTED              ACCESS:SEQUENTIAL          

 OPENING well.evt
 FILE TYPE:EVT   UNIT   22   STATUS:OLD    
 FORMAT:FORMATTED              ACCESS:SEQUENTIAL          

 OPENING well.wel
 FILE TYPE:WEL   UNIT   20   STATUS:OLD    
 FORMAT:FORMATTED              ACCESS:SEQUENTIAL          

 OPENING well.cbc
 FILE TYPE:DATA(BINARY)   UNIT   53   STATUS:REPLACE
 FORMAT:BINARY                 ACCESS:SEQUENTIAL          

 OPENING well.hds
 FILE TYPE:DATA(BINARY)   UNIT   51   STATUS:REPLACE
 FORMAT:BINARY                 ACCESS:SEQUENTIAL          

 BAS -- BASIC PACKAGE, VERSION 7, 5/2/2005 INPUT READ FROM UNIT   13
 
 MODFLOW was compiled using mixed precision
 Precision of REAL variables:           6
 Precision of DOUBLE PRECISION variables:          15

 DISCRETIZATION INPUT DATA READ FROM UNIT   11
 # DIS package for  MODFLOW-2005, generated by Flopy.
    2 LAYERS        50 ROWS        50 COLUMNS
    1 STRESS PERIOD(S) IN SIMULATION
 MODEL TIME UNIT IS DAYS
 MODEL LENGTH UNIT IS METERS
  Confining bed flag for each layer:
   0   0

                     DELR =   1000.00    

                     DELC =   1000.00    



           TOP ELEVATION OF LAYER 1
 READING ON UNIT   11 WITH FORMAT: (50E15.6)           



             MODEL LAYER BOTTOM EL. FOR LAYER   1
 READING ON UNIT   11 WITH FORMAT: (50E15.6)           



             MODEL LAYER BOTTOM EL. FOR LAYER   2
 READING ON UNIT   11 WITH FORMAT: (50E15.6)           


 STRESS PERIOD     LENGTH       TIME STEPS     MULTIPLIER FOR DELT    SS FLAG
 ----------------------------------------------------------------------------
        1         1.000000          1                    1.000         SS

 STEADY-STATE SIMULATION



 
 # BAS6 package for  MODFLOW-2005, generated by Flopy.                           
 THE FREE FORMAT OPTION HAS BEEN SELECTED



                     BOUNDARY ARRAY FOR LAYER   1
 READING ON UNIT   13 WITH FORMAT: (50I10)             



                     BOUNDARY ARRAY FOR LAYER   2
 READING ON UNIT   13 WITH FORMAT: (50I10)             

 AQUIFER HEAD WILL BE SET TO  -999.99     AT ALL NO-FLOW NODES (IBOUND=0).



                       INITIAL HEAD FOR LAYER   1
 READING ON UNIT   13 WITH FORMAT: (50E15.6)           



                       INITIAL HEAD FOR LAYER   2
 READING ON UNIT   13 WITH FORMAT: (50E15.6)           
 # OC package for  MODFLOW-2005, generated by Flopy.

 OUTPUT CONTROL IS SPECIFIED ONLY AT TIME STEPS FOR WHICH OUTPUT IS DESIRED
 COMPACT CELL-BY-CELL BUDGET FILES WILL BE WRITTEN
 AUXILIARY DATA WILL BE SAVED IN CELL-BY-CELL BUDGET FILES
 HEAD PRINT FORMAT CODE IS   0    DRAWDOWN PRINT FORMAT CODE IS   0
 HEADS WILL BE SAVED ON UNIT   51    DRAWDOWNS WILL BE SAVED ON UNIT    0

 LPF -- LAYER-PROPERTY FLOW PACKAGE, VERSION 7, 5/2/2005
         INPUT READ FROM UNIT   15
 # LPF package for  MODFLOW-2005, generated by Flopy.
 CELL-BY-CELL FLOWS WILL BE SAVED ON UNIT   53
 HEAD AT CELLS THAT CONVERT TO DRY= -1.00000E+30
 No named parameters

   LAYER FLAGS:
 LAYER       LAYTYP        LAYAVG         CHANI        LAYVKA        LAYWET
 ---------------------------------------------------------------------------
    1             1             0     0.000E+00             0             0
    2             1             0     0.000E+00             0             0

   INTERPRETATION OF LAYER FLAGS:
                        INTERBLOCK     HORIZONTAL    DATA IN
         LAYER TYPE   TRANSMISSIVITY   ANISOTROPY   ARRAY VKA   WETTABILITY
 LAYER      (LAYTYP)      (LAYAVG)       (CHANI)      (LAYVKA)      (LAYWET)
 ---------------------------------------------------------------------------
    1   CONVERTIBLE      HARMONIC      VARIABLE    VERTICAL K  NON-WETTABLE
    2   CONVERTIBLE      HARMONIC      VARIABLE    VERTICAL K  NON-WETTABLE

 WETTING CAPABILITY IS NOT ACTIVE IN ANY LAYER

    HYD. COND. ALONG ROWS =   10.0000     FOR LAYER   1

   HORIZ. ANI. (COL./ROW) =   1.00000     FOR LAYER   1

      VERTICAL HYD. COND. =   10.0000     FOR LAYER   1

    HYD. COND. ALONG ROWS =   10.0000     FOR LAYER   2

   HORIZ. ANI. (COL./ROW) =   1.00000     FOR LAYER   2

      VERTICAL HYD. COND. =   10.0000     FOR LAYER   2

 WEL -- WELL PACKAGE, VERSION 7, 5/2/2005 INPUT READ FROM UNIT   20
 # WEL package for  MODFLOW-2005, generated by Flopy.
 No named parameters
 MAXIMUM OF      2 ACTIVE WELLS AT ONE TIME


     0 Well parameters

 EVT -- EVAPOTRANSPIRATION PACKAGE, VERSION 7, 5/2/2005
         INPUT READ FROM UNIT   22
 # EVT package for  MODFLOW-2005, generated by Flopy.
 No named parameters
 OPTION 3 -- EVAPOTRANSPIRATION FROM HIGHEST ACTIVE NODE IN EACH VERTICAL COLUMN
 CELL-BY-CELL FLOWS WILL BE SAVED ON UNIT   53


     0 Evapotranspiration parameters

 RCH -- RECHARGE PACKAGE, VERSION 7, 5/2/2005 INPUT READ FROM UNIT   19
 # RCH package for  MODFLOW-2005, generated by Flopy.
 No named parameters
 OPTION 3 -- RECHARGE TO HIGHEST ACTIVE NODE IN EACH VERTICAL COLUMN


     0 Recharge parameters

 STR -- STREAM PACKAGE, VERSION 7, 5/2/2005 INPUT READ FROM UNIT  118
 # STR package for  MODFLOW-2005, generated by Flopy.
 No named parameters
 MAXIMUM OF     44 ACTIVE STREAM NODES AT ONE TIME
 NUMBER OF STREAM SEGMENTS IS      1
 NUMBER OF STREAM TRIBUTARIES IS      0
 CELL BUDGETS WILL BE SAVED ON UNITS   53 AND   53


     0 Stream parameters

 PCG -- CONJUGATE-GRADIENT SOLUTION PACKAGE, VERSION 7, 5/2/2005
 # PCG package for  MODFLOW-2005, generated by Flopy.
 MAXIMUM OF     50 CALLS OF SOLUTION ROUTINE
 MAXIMUM OF     30 INTERNAL ITERATIONS PER CALL TO SOLUTION ROUTINE
 MATRIX PRECONDITIONING TYPE :    1



                                    SOLUTION BY THE CONJUGATE-GRADIENT METHOD
                                   -------------------------------------------
                    MAXIMUM NUMBER OF CALLS TO PCG ROUTINE =       50
                        MAXIMUM ITERATIONS PER CALL TO PCG =       30
                               MATRIX PRECONDITIONING TYPE =        1
        RELAXATION FACTOR (ONLY USED WITH PRECOND. TYPE 1) =    0.10000E+01
 PARAMETER OF POLYNOMIAL PRECOND. = 2 (2) OR IS CALCULATED :        0
                         HEAD CHANGE CRITERION FOR CLOSURE =    0.10000E-04
                     RESIDUAL CHANGE CRITERION FOR CLOSURE =    0.10000E-04
            PCG HEAD AND RESIDUAL CHANGE PRINTOUT INTERVAL =      999
     PRINTING FROM SOLVER IS LIMITED(1) OR SUPPRESSED (>1) =        3
                            STEADY-STATE DAMPING PARAMETER =    0.10000E+01
                               TRANSIENT DAMPING PARAMETER =    0.10000E+01
1
                            STRESS PERIOD NO.    1, LENGTH =   1.000000    
                            -----------------------------------------------

                              NUMBER OF TIME STEPS =     1

                               MULTIPLIER FOR DELT =     1.000

                            INITIAL TIME STEP SIZE =   1.000000    

 WELL NO.  LAYER   ROW   COL   STRESS RATE         
 --------------------------------------------------
      1      1     36     26     -0.1000E+05
      2      1     33     36     -0.1200E+05

      2 WELLS



                         ET SURFACE
 READING ON UNIT   22 WITH FORMAT: (50E15.6)           



            EVAPOTRANSPIRATION RATE
 READING ON UNIT   22 WITH FORMAT: (50E15.6)           



                   EXTINCTION DEPTH
 READING ON UNIT   22 WITH FORMAT: (50E15.6)           



                           RECHARGE
 READING ON UNIT   19 WITH FORMAT: (50E15.6)           

     44 STREAM REACHES
 
 SOLVING FOR HEAD 

 OUTPUT CONTROL FOR STRESS PERIOD    1   TIME STEP    1
    PRINT HEAD FOR ALL LAYERS
    PRINT BUDGET
    SAVE HEAD FOR ALL LAYERS
    SAVE BUDGET
 UBDSV2 SAVING "   CONSTANT HEAD" ON UNIT  53 AT TIME STEP  1, STRESS PERIOD   1
 UBDSV1 SAVING "FLOW RIGHT FACE " ON UNIT  53 AT TIME STEP  1, STRESS PERIOD   1
 UBDSV1 SAVING "FLOW FRONT FACE " ON UNIT  53 AT TIME STEP  1, STRESS PERIOD   1
 UBDSV1 SAVING "FLOW LOWER FACE " ON UNIT  53 AT TIME STEP  1, STRESS PERIOD   1
 UBDSV3 SAVING "              ET" ON UNIT  53 AT TIME STEP  1, STRESS PERIOD   1
 UBDSV4 SAVING "  STREAM LEAKAGE" ON UNIT  53 AT TIME STEP  1, STRESS PERIOD   1
 UBDSV4 SAVING "STREAM FLOW OUT " ON UNIT  53 AT TIME STEP  1, STRESS PERIOD   1
1
              HEAD IN LAYER   1 AT END OF TIME STEP   1 IN STRESS PERIOD    1
  ---------------------------------------------------------------------------

            1           2           3           4           5           6           7           8           9          10
           11          12          13          14          15          16          17          18          19          20
           21          22          23          24          25          26          27          28          29          30
           31          32          33          34          35          36          37          38          39          40
           41          42          43          44          45          46          47          48          49          50
 ........................................................................................................................
   1  -1000.0     -1000.0     -1000.0     -1000.0     -1000.0     -1000.0     -1000.0     -1000.0     -1000.0     -1000.0    
      -1000.0     -1000.0     -1000.0     -1000.0     -1000.0     -1000.0     -1000.0     -1000.0     -1000.0     -1000.0    
      -1000.0     -1000.0     -1000.0     -1000.0     -1000.0     -1000.0     -1000.0     -1000.0     -1000.0     -1000.0    
      -1000.0     -1000.0     -1000.0     -1000.0     -1000.0     -1000.0     -1000.0     -1000.0     -1000.0     -1000.0    
      -1000.0     -1000.0     -1000.0     -1000.0     -1000.0     -1000.0     -1000.0     -1000.0     -1000.0     -1000.0    
   2  -1000.0     -1000.0     -1000.0     -1000.0     -1000.0     -1000.0     -1000.0     -1000.0     -1000.0     -1000.0    
      -1000.0     -1000.0     -1000.0     -1000.0     -1000.0     -1000.0     -1000.0     -1000.0     -1000.0     -1000.0    
      -1000.0     -1000.0     -1000.0       77.01       76.92       76.78       76.62       76.44       76.26       76.07    
        75.90       75.74       75.61       75.52     -1000.0     -1000.0     -1000.0     -1000.0     -1000.0     -1000.0    
      -1000.0     -1000.0     -1000.0     -1000.0     -1000.0     -1000.0     -1000.0     -1000.0     -1000.0     -1000.0    
   3  -1000.0     -1000.0     -1000.0     -1000.0     -1000.0     -1000.0     -1000.0     -1000.0     -1000.0     -1000.0    
      -1000.0     -1000.0     -1000.0     -1000.0     -1000.0     -1000.0     -1000.0     -1000.0     -1000.0     -1000.0    
      -1000.0     -1000.0       77.22       77.10       76.96       76.80       76.63       76.44       76.25       76.07    
        75.88       75.71       75.56       75.43       75.32     -1000.0     -1000.0     -1000.0     -1000.0     -1000.0    
      -1000.0     -1000.0     -1000.0     -1000.0     -1000.0     -1000.0     -1000.0     -1000.0     -1000.0     -1000.0    
   4  -1000.0     -1000.0     -1000.0     -1000.0     -1000.0     -1000.0     -1000.0     -1000.0     -1000.0     -1000.0    
      -1000.0     -1000.0     -1000.0     -1000.0     -1000.0     -1000.0     -1000.0     -1000.0     -1000.0     -1000.0    
      -1000.0     -1000.0       77.34       77.20       77.03       76.85       76.65       76.45       76.25       76.05    
        75.86       75.67       75.49       75.33       75.20     -1000.0     -1000.0     -1000.0     -1000.0     -1000.0    
      -1000.0     -1000.0     -1000.0     -1000.0     -1000.0     -1000.0     -1000.0     -1000.0     -1000.0     -1000.0    
   5  -1000.0     -1000.0     -1000.0     -1000.0     -1000.0     -1000.0     -1000.0     -1000.0     -1000.0     -1000.0    
      -1000.0     -1000.0     -1000.0     -1000.0     -1000.0     -1000.0     -1000.0       78.91       78.78       78.57    
        78.30       77.99       77.60       77.34       77.12       76.90       76.68       76.46       76.25       76.03    
        75.82       75.61       75.41       75.20       74.95       74.59       74.28       74.01       73.76       73.53    
        73.32       73.15       73.00       72.91     -1000.0     -1000.0     -1000.0     -1000.0     -1000.0     -1000.0    
   6  -1000.0     -1000.0     -1000.0     -1000.0     -1000.0     -1000.0     -1000.0     -1000.0     -1000.0     -1000.0    
      -1000.0     -1000.0     -1000.0     -1000.0     -1000.0     -1000.0     -1000.0       79.03       78.87       78.63    
        78.35       78.05       77.73       77.45       77.19       76.94       76.71       76.47       76.24       76.01    
        75.78       75.55       75.33       75.09       74.83       74.53       74.25       73.98       73.73       73.50    
        73.30       73.11       72.95       72.82       72.71     -1000.0     -1000.0     -1000.0     -1000.0     -1000.0    
   7  -1000.0     -1000.0     -1000.0     -1000.0     -1000.0     -1000.0     -1000.0     -1000.0     -1000.0     -1000.0    
      -1000.0     -1000.0     -1000.0       80.57       80.40       80.12       79.76       79.32       79.02       78.73    
        78.43       78.13       77.82       77.53       77.25       76.99       76.73       76.48       76.23       75.98    
        75.74       75.50       75.25       75.00       74.74       74.47       74.20       73.94       73.69       73.46    
        73.24       73.05       72.87       72.72       72.60     -1000.0     -1000.0     -1000.0     -1000.0     -1000.0    
   8  -1000.0     -1000.0     -1000.0     -1000.0     -1000.0     -1000.0     -1000.0     -1000.0     -1000.0     -1000.0    
      -1000.0     -1000.0       80.83       80.68       80.47       80.18       79.85       79.48       79.15       78.83    
        78.52       78.20       77.89       77.59       77.30       77.02       76.74       76.48       76.21       75.95    
        75.70       75.44       75.19       74.93       74.66       74.40       74.13       73.88       73.63       73.39    
        73.17       72.96       72.77       72.57       72.37       72.09       71.89       71.79     -1000.0     -1000.0    
   9  -1000.0     -1000.0     -1000.0     -1000.0     -1000.0     -1000.0     -1000.0     -1000.0     -1000.0     -1000.0    
      -1000.0     -1000.0       80.92       80.80       80.59       80.29       79.95       79.61       79.27       78.93    
        78.60       78.28       77.96       77.64       77.34       77.04       76.75       76.47       76.19       75.92    
        75.65       75.39       75.12       74.85       74.59       74.32       74.06       73.80       73.56       73.32    
        73.09       72.87       72.65       72.44       72.22       72.00       71.81       71.68     -1000.0     -1000.0    
  10  -1000.0     -1000.0     -1000.0     -1000.0     -1000.0     -1000.0     -1000.0     -1000.0     -1000.0     -1000.0    
      -1000.0     -1000.0       81.09       80.97       80.73       80.42       80.08       79.73       79.37       79.03    
        78.68       78.34       78.01       77.68       77.37       77.06       76.76       76.46       76.17       75.88    
        75.60       75.33       75.05       74.78       74.51       74.24       73.98       73.72       73.47       73.23    
        72.99       72.76       72.54       72.31       72.09       71.86       71.65       71.46       71.25     -1000.0    
  11  -1000.0     -1000.0     -1000.0     -1000.0     -1000.0     -1000.0     -1000.0     -1000.0     -1000.0     -1000.0    
      -1000.0     -1000.0       81.34       81.18       80.92       80.57       80.21       79.84       79.48       79.11    
        78.75       78.40       78.06       77.72       77.39       77.06       76.75       76.44       76.14       75.84    
        75.55       75.26       74.98       74.70       74.43       74.16       73.89       73.63       73.38       73.13    
        72.89       72.65       72.42       72.19       71.95       71.71       71.47       71.24       71.04     -1000.0    
  12  -1000.0     -1000.0     -1000.0     -1000.0     -1000.0     -1000.0     -1000.0     -1000.0     -1000.0     -1000.0    
      -1000.0     -1000.0       81.69       81.46       81.13       80.74       80.35       79.96       79.57       79.19    
        78.82       78.45       78.09       77.74       77.40       77.06       76.73       76.41       76.10       75.79    
        75.49       75.20       74.91       74.62       74.34       74.07       73.80       73.54       73.28       73.03    
        72.79       72.54       72.30       72.06       71.81       71.56       71.29       71.00       70.62       70.00    
  13  -1000.0     -1000.0     -1000.0     -1000.0     -1000.0       84.86       84.73       84.51       84.23       83.87    
        83.44       82.91       82.23       81.77       81.35       80.91       80.48       80.07       79.66       79.26    
        78.87       78.49       78.12       77.76       77.40       77.05       76.71       76.38       76.06       75.74    
        75.43       75.12       74.83       74.54       74.25       73.97       73.70       73.44       73.18       72.92    
        72.67       72.43       72.18       71.94       71.68       71.42       71.14       70.83       70.46       70.00    
  14  -1000.0     -1000.0     -1000.0       85.20       85.11       84.94       84.76       84.54       84.25       83.90    
        83.49       83.01       82.49       82.00       81.54       81.06       80.60       80.17       79.74       79.32    
        78.92       78.52       78.14       77.76       77.39       77.03       76.68       76.34       76.00       75.67    
        75.35       75.04       74.74       74.44       74.15       73.87       73.59       73.33       73.06       72.81    
        72.56       72.31       72.06       71.82       71.56       71.30       71.02       70.71       70.37       70.00    
  15  -1000.0     -1000.0       85.31       85.24       85.14       84.99       84.80       84.57       84.28       83.95    
        83.55       83.12       82.64       82.17       81.68       81.18       80.71       80.25       79.81       79.37    
        78.95       78.54       78.14       77.75       77.37       77.00       76.64       76.28       75.94       75.60    
        75.27       74.95       74.64       74.34       74.04       73.76       73.48       73.21       72.95       72.69    
        72.44       72.19       71.95       71.70       71.45       71.19       70.92       70.63       70.32       70.00    
  16  -1000.0     -1000.0       85.33       85.28       85.17       85.03       84.84       84.60       84.32       83.99    
        83.62       83.20       82.75       82.28       81.79       81.28       80.79       80.31       79.86       79.41    
        78.98       78.55       78.14       77.73       77.34       76.96       76.58       76.22       75.86       75.52    
        75.18       74.85       74.53       74.22       73.92       73.63       73.35       73.08       72.82       72.56    
        72.32       72.07       71.83       71.59       71.35       71.10       70.84       70.57       70.29       70.00    
  17  -1000.0     -1000.0       85.36       85.31       85.20       85.06       84.87       84.63       84.36       84.03    
        83.67       83.27       82.83       82.37       81.87       81.35       80.85       80.36       79.89       79.43    
        78.98       78.55       78.12       77.70       77.30       76.91       76.52       76.14       75.78       75.42    
        75.08       74.74       74.41       74.10       73.79       73.50       73.22       72.94       72.68       72.43    
        72.19       71.95       71.71       71.48       71.24       71.01       70.76       70.52       70.26       70.00    
  18  -1000.0     -1000.0       85.40       85.34       85.23       85.08       84.89       84.66       84.39       84.07    
        83.71       83.32       82.89       82.43       81.93       81.40       80.89       80.40       79.91       79.44    
        78.98       78.53       78.09       77.66       77.25       76.84       76.44       76.06       75.68       75.32    
        74.96       74.62       74.28       73.96       73.65       73.35       73.07       72.80       72.54       72.29    
        72.05       71.82       71.59       71.37       71.15       70.92       70.70       70.47       70.24       70.00    
  19  -1000.0       85.50       85.44       85.37       85.26       85.11       84.92       84.68       84.41       84.10    
        83.75       83.36       82.93       82.47       81.97       81.44       80.92       80.41       79.92       79.43    
        78.96       78.50       78.05       77.61       77.18       76.76       76.36       75.96       75.58       75.20    
        74.83       74.48       74.14       73.81       73.49       73.19       72.91       72.64       72.38       72.14    
        71.91       71.68       71.47       71.26       71.05       70.84       70.63       70.42       70.21       70.00    
  20  -1000.0       85.51       85.47       85.39       85.27       85.12       84.93       84.70       84.43       84.12    
        83.77       83.38       82.95       82.49       81.99       81.45       80.93       80.41       79.91       79.41    
        78.93       78.45       77.99       77.54       77.10       76.67       76.26       75.85       75.46       75.07    
        74.70       74.33       73.98       73.64       73.32       73.01       72.73       72.46       72.21       71.97    
        71.75       71.54       71.34       71.14       70.95       70.76       70.57       70.38       70.19       70.00    
  21  -1000.0       85.52       85.48       85.40       85.28       85.13       84.94       84.71       84.44       84.13    
        83.78       83.39       82.96       82.50       82.00       81.45       80.92       80.40       79.88       79.38    
        78.88       78.39       77.92       77.45       77.00       76.57       76.14       75.73       75.33       74.93    
        74.54       74.16       73.80       73.45       73.12       72.82       72.53       72.27       72.02       71.79    
        71.58       71.39       71.20       71.02       70.84       70.67       70.50       70.34       70.17       70.00    
  22  -1000.0       85.51       85.47       85.40       85.28       85.13       84.94       84.71       84.44       84.13    
        83.78       83.39       82.96       82.50       81.99       81.44       80.90       80.37       79.85       79.33    
        78.82       78.32       77.83       77.35       76.89       76.45       76.02       75.60       75.19       74.78    
        74.38       73.98       73.60       73.24       72.91       72.60       72.31       72.05       71.81       71.60    
        71.40       71.22       71.05       70.89       70.74       70.59       70.44       70.29       70.15       70.00    
  23  -1000.0       85.51       85.47       85.39       85.27       85.12       84.93       84.69       84.43       84.12    
        83.77       83.38       82.95       82.48       81.97       81.42       80.88       80.34       79.80       79.27    
        78.75       78.23       77.72       77.23       76.76       76.31       75.88       75.46       75.04       74.62    
        74.20       73.79       73.39       73.01       72.66       72.35       72.06       71.81       71.58       71.38    
        71.21       71.04       70.90       70.76       70.62       70.49       70.37       70.25       70.12       70.00    
  24  -1000.0       85.49       85.45       85.37       85.25       85.10       84.91       84.68       84.41       84.10    
        83.75       83.36       82.93       82.46       81.94       81.39       80.84       80.29       79.75       79.21    
        78.67       78.13       77.60       77.09       76.60       76.15       75.72       75.31       74.90       74.47    
        74.02       73.57       73.14       72.75       72.39       72.06       71.78       71.54       71.33       71.15    
        70.99       70.85       70.73       70.61       70.51       70.40       70.30       70.20       70.10       70.00    
  25  -1000.0       85.47       85.42       85.34       85.22       85.07       84.88       84.65       84.38       84.07    
        83.72       83.33       82.90       82.42       81.91       81.35       80.79       80.24       79.69       79.14    
        78.58       78.02       77.46       76.92       76.40       75.95       75.55       75.16       74.76       74.33    
        73.83       73.33       72.87       72.44       72.07       71.74       71.46       71.23       71.04       70.89    
        70.76       70.65       70.55       70.47       70.38       70.31       70.23       70.15       70.08       70.00    
  26  -1000.0       85.45       85.38       85.30       85.18       85.03       84.84       84.61       84.34       84.03    
        83.68       83.29       82.86       82.38       81.86       81.30       80.74       80.18       79.62       79.06    
        78.50       77.92       77.29       76.72       76.13       75.72       75.36       75.02       74.67       74.25    
        73.63       73.05       72.55       72.09       71.69       71.36       71.09       70.88       70.72       70.60    
        70.50       70.43       70.37       70.31       70.26       70.21       70.16       70.10       70.05       70.00    
  27  -1000.0     -1000.0       85.31       85.25       85.14       84.99       84.79       84.56       84.29       83.99    
        83.63       83.24       82.81       82.33       81.81       81.24       80.67       80.11       79.55       78.99    
        78.43       77.85       77.26       76.70       76.15       75.67       75.22       74.79       74.34       73.84    
        73.28       72.71       72.17       71.68       71.25       70.91       70.65       70.47       70.35       70.28    
        70.23       70.20       70.18       70.15       70.13       70.11       70.08       70.06       70.03       70.00    
  28  -1000.0     -1000.0       85.25       85.19       85.08       84.93       84.74       84.51       84.24       83.93    
        83.58       83.19       82.75       82.27       81.74       81.17       80.61       80.04       79.48       78.93    
        78.36       77.79       77.22       76.65       76.10       75.57       75.07       74.57       74.06       73.51    
        72.92       72.32       71.74       71.20       70.73       70.37       70.13       70.00       69.94       69.93    
        69.94       69.96       69.98       70.00       70.01       70.01       70.01       70.01       70.01       70.00    
  29  -1000.0     -1000.0       85.20       85.14       85.03       84.87       84.68       84.45       84.18       83.87    
        83.52       83.13       82.69       82.20       81.67       81.10       80.53       79.97       79.41       78.86    
        78.30       77.73       77.16       76.58       76.01       75.46       74.91       74.37       73.81       73.21    
        72.57       71.91       71.26       70.63       70.09       69.70       69.50       69.45       69.48       69.56    
        69.64       69.72       69.79       69.84       69.89       69.92       69.95       69.97       69.98       70.00    
  30  -1000.0     -1000.0       85.16       85.10       84.97       84.79       84.60       84.37       84.11       83.80    
        83.45       83.06       82.62       82.13       81.59       81.02       80.45       79.88       79.33       78.78    
        78.24       77.68       77.10       76.50       75.91       75.32       74.75       74.18       73.58       72.94    
        72.23       71.50       70.73       69.98       69.29       68.82       68.70       68.80       68.99       69.18    
        69.35       69.49       69.61       69.70       69.78       69.84       69.89       69.93       69.97       70.00    
  31  -1000.0     -1000.0       85.14       85.07       84.93       84.69       84.50       84.29       84.03       83.73    
        83.38       82.99       82.54       82.05       81.51       80.92       80.35       79.79       79.24       78.71    
        78.20       77.64       77.04       76.41       75.78       75.17       74.59       74.01       73.40       72.72    
        71.92       71.09       70.20       69.23       68.27       67.56       67.69       68.08       68.47       68.81    
        69.08       69.28       69.45       69.58       69.68       69.76       69.83       69.89       69.95       70.00    
  32  -1000.0     -1000.0     -1000.0     -1000.0     -1000.0       84.49       84.37       84.19       83.96       83.66    
        83.32       82.91       82.46       81.96       81.41       80.82       80.24       79.67       79.12       78.59    
        78.09       77.52       76.87       76.19       75.50       74.86       74.28       73.74       73.15       72.47    
        71.64       70.74       69.71       68.47       66.96       65.42       66.38       67.33       68.02       68.51    
        68.86       69.12       69.32       69.48       69.60       69.70       69.79       69.87       69.93       70.00    
  33  -1000.0     -1000.0     -1000.0     -1000.0     -1000.0       84.36       84.27       84.11       83.88       83.60    
        83.25       82.84       82.38       81.86       81.30       80.70       80.11       79.54       78.98       78.44    
        77.93       77.32       76.61       75.84       75.04       74.33       73.81       73.35       72.85       72.22    
        71.41       70.50       69.40       67.94       65.61       60.49       65.03       66.83       67.76       68.34    
        68.74       69.02       69.24       69.41       69.54       69.66       69.76       69.84       69.92       70.00    
  34  -1000.0     -1000.0     -1000.0     -1000.0     -1000.0       84.26       84.19       84.04       83.83       83.54    
        83.19       82.78       82.30       81.76       81.18       80.56       79.96       79.38       78.82       78.27    
        77.73       77.07       76.28       75.36       74.36       73.46       73.12       72.88       72.54       72.02    
        71.28       70.43       69.44       68.23       66.73       65.21       66.18       67.15       67.85       68.35    
        68.72       68.99       69.20       69.37       69.51       69.63       69.74       69.83       69.92       70.00    
  35  -1000.0     -1000.0     -1000.0     -1000.0     -1000.0       84.20       84.13       83.99       83.79       83.51    
        83.16       82.73       82.22       81.65       81.04       80.40       79.78       79.20       78.63       78.08    
        77.53       76.83       75.94       74.81       73.40       71.88       72.17       72.37       72.26       71.88    
        71.24       70.51       69.68       68.76       67.83       67.15       67.30       67.72       68.14       68.50    
        68.79       69.02       69.21       69.36       69.50       69.62       69.72       69.82       69.91       70.00    
  36  -1000.0     -1000.0     -1000.0     -1000.0     -1000.0       84.16       84.09       83.96       83.77       83.50    
        83.14       82.70       82.16       81.54       80.87       80.20       79.58       78.99       78.44       77.89    
        77.34       76.62       75.69       74.40       72.37       68.21       71.16       72.01       72.12       71.84    
        71.30       70.67       69.99       69.29       68.65       68.22       68.14       68.28       68.49       68.71    
        68.91       69.09       69.24       69.38       69.50       69.62       69.72       69.82       69.91       70.00    
  37  -1000.0     -1000.0     -1000.0     -1000.0     -1000.0       84.13       84.07       83.95       83.77       83.52    
        83.18       82.72       82.11       81.42       80.66       79.95       79.32       78.76       78.22       77.70    
        77.18       76.50       75.64       74.54       73.16       71.68       72.01       72.26       72.23       71.94    
        71.43       70.88       70.30       69.75       69.26       68.92       68.76       68.76       68.83       68.95    
        69.07       69.18       69.29       69.41       69.52       69.62       69.73       69.82       69.91       70.00    
  38  -1000.0     -1000.0     -1000.0     -1000.0     -1000.0       84.12       84.06       83.96       83.81       83.58    
        83.27       82.83       82.10       81.31       80.35       79.60       79.01       78.48       77.99       77.51    
        77.03       76.42       75.68       74.81       73.87       73.05       72.79       72.65       72.45       72.10    
        71.61       71.10       70.60       70.13       69.72       69.42       69.23       69.15       69.14       69.17    
        69.22       69.27       69.34       69.43       69.53       69.64       69.74       69.83       69.92       70.00    
  39  -1000.0     -1000.0     -1000.0     -1000.0     -1000.0     -1000.0       84.04       83.98       83.86       83.69    
        83.46       83.17     -1000.0     -1000.0       79.75       79.10       78.61       78.17       77.74       77.31    
        76.88       76.35       75.72       75.02       74.31       73.69       73.29       72.98       72.67       72.28    
        71.79       71.31       70.86       70.44       70.08       69.79       69.59       69.46       69.40       69.38    
        69.37       69.34       69.38       69.45       69.54       69.65       69.76       69.85       69.93       70.00    
  40  -1000.0     -1000.0     -1000.0     -1000.0     -1000.0     -1000.0       84.04       83.99       83.91       83.80    
        83.65     -1000.0     -1000.0     -1000.0     -1000.0       78.42       78.18       77.85       77.48       77.10    
        76.71       76.23       75.68       75.09       74.51       73.99       73.56       73.19       72.82       72.42    
        71.94       71.50       71.08       70.70       70.36       70.08       69.87       69.72       69.62       69.57    
        69.55     -1000.0     -1000.0     -1000.0     -1000.0     -1000.0       69.82       69.87       69.94       70.00    
  41  -1000.0     -1000.0     -1000.0     -1000.0     -1000.0     -1000.0     -1000.0       84.00       83.95       83.90    
      -1000.0     -1000.0     -1000.0     -1000.0     -1000.0       77.97       77.82       77.56       77.25       76.89    
        76.49       76.04       75.54       75.03       74.52       74.05       73.63       73.24       72.87       72.48    
        72.07       71.66       71.27       70.90       70.57       70.30       70.08       69.92       69.80       69.74    
        69.70     -1000.0     -1000.0     -1000.0     -1000.0     -1000.0     -1000.0     -1000.0       69.97       70.00    
  42  -1000.0     -1000.0     -1000.0     -1000.0     -1000.0     -1000.0     -1000.0     -1000.0     -1000.0     -1000.0    
      -1000.0     -1000.0     -1000.0     -1000.0     -1000.0       77.69       77.55       77.34       77.06       76.72    
        76.33       75.89       75.42       74.95       74.49       74.06       73.66       73.29       72.93       72.57    
        72.20       71.81       71.42       71.06       70.73       70.46       70.23       70.06       69.94       69.86    
        69.83     -1000.0     -1000.0     -1000.0     -1000.0     -1000.0     -1000.0     -1000.0     -1000.0     -1000.0    
  43  -1000.0     -1000.0     -1000.0     -1000.0     -1000.0     -1000.0     -1000.0     -1000.0     -1000.0     -1000.0    
      -1000.0     -1000.0     -1000.0     -1000.0     -1000.0       77.53       77.37       77.18       76.92       76.59    
        76.21       75.77       75.30       74.85       74.42       74.03       73.66       73.32       72.99       72.66    
        72.33       71.96       71.55       71.18       70.85       70.57       70.34       70.16       70.03       69.95    
        69.91     -1000.0     -1000.0     -1000.0     -1000.0     -1000.0     -1000.0     -1000.0     -1000.0     -1000.0    
  44  -1000.0     -1000.0     -1000.0     -1000.0     -1000.0     -1000.0     -1000.0     -1000.0     -1000.0     -1000.0    
      -1000.0     -1000.0     -1000.0     -1000.0     -1000.0     -1000.0       77.23       77.08       76.84       76.53    
        76.14       75.69       75.15       74.73       74.33       73.96       73.64       73.34       73.05       72.77    
        72.48       72.16       71.65       71.24       70.90       70.62       70.39       70.21       70.08       69.99    
        69.95     -1000.0     -1000.0     -1000.0     -1000.0     -1000.0     -1000.0     -1000.0     -1000.0     -1000.0    
  45  -1000.0     -1000.0     -1000.0     -1000.0     -1000.0     -1000.0     -1000.0     -1000.0     -1000.0     -1000.0    
      -1000.0     -1000.0     -1000.0     -1000.0     -1000.0     -1000.0     -1000.0     -1000.0     -1000.0     -1000.0    
      -1000.0     -1000.0       74.87       74.60       74.18       73.86       73.59       73.34       73.10       72.88    
        72.68       72.52     -1000.0     -1000.0     -1000.0     -1000.0     -1000.0     -1000.0     -1000.0     -1000.0    
      -1000.0     -1000.0     -1000.0     -1000.0     -1000.0     -1000.0     -1000.0     -1000.0     -1000.0     -1000.0    
  46  -1000.0     -1000.0     -1000.0     -1000.0     -1000.0     -1000.0     -1000.0     -1000.0     -1000.0     -1000.0    
      -1000.0     -1000.0     -1000.0     -1000.0     -1000.0     -1000.0     -1000.0     -1000.0     -1000.0     -1000.0    
      -1000.0     -1000.0     -1000.0     -1000.0       73.95       73.71       73.51       73.32       73.14       72.97    
        72.83       72.72     -1000.0     -1000.0     -1000.0     -1000.0     -1000.0     -1000.0     -1000.0     -1000.0    
      -1000.0     -1000.0     -1000.0     -1000.0     -1000.0     -1000.0     -1000.0     -1000.0     -1000.0     -1000.0    
  47  -1000.0     -1000.0     -1000.0     -1000.0     -1000.0     -1000.0     -1000.0     -1000.0     -1000.0     -1000.0    
      -1000.0     -1000.0     -1000.0     -1000.0     -1000.0     -1000.0     -1000.0     -1000.0     -1000.0     -1000.0    
      -1000.0     -1000.0     -1000.0     -1000.0     -1000.0       73.52       73.43       73.30       73.17       73.04    
        72.93       72.83     -1000.0     -1000.0     -1000.0     -1000.0     -1000.0     -1000.0     -1000.0     -1000.0    
      -1000.0     -1000.0     -1000.0     -1000.0     -1000.0     -1000.0     -1000.0     -1000.0     -1000.0     -1000.0    
  48  -1000.0     -1000.0     -1000.0     -1000.0     -1000.0     -1000.0     -1000.0     -1000.0     -1000.0     -1000.0    
      -1000.0     -1000.0     -1000.0     -1000.0     -1000.0     -1000.0     -1000.0     -1000.0     -1000.0     -1000.0    
      -1000.0     -1000.0     -1000.0     -1000.0     -1000.0       73.43       73.37       73.29       73.19       73.10    
        73.01     -1000.0     -1000.0     -1000.0     -1000.0     -1000.0     -1000.0     -1000.0     -1000.0     -1000.0    
      -1000.0     -1000.0     -1000.0     -1000.0     -1000.0     -1000.0     -1000.0     -1000.0     -1000.0     -1000.0    
  49  -1000.0     -1000.0     -1000.0     -1000.0     -1000.0     -1000.0     -1000.0     -1000.0     -1000.0     -1000.0    
      -1000.0     -1000.0     -1000.0     -1000.0     -1000.0     -1000.0     -1000.0     -1000.0     -1000.0     -1000.0    
      -1000.0     -1000.0     -1000.0     -1000.0     -1000.0       73.39       73.35       73.28       73.21       73.15    
      -1000.0     -1000.0     -1000.0     -1000.0     -1000.0     -1000.0     -1000.0     -1000.0     -1000.0     -1000.0    
      -1000.0     -1000.0     -1000.0     -1000.0     -1000.0     -1000.0     -1000.0     -1000.0     -1000.0     -1000.0    
  50  -1000.0     -1000.0     -1000.0     -1000.0     -1000.0     -1000.0     -1000.0     -1000.0     -1000.0     -1000.0    
      -1000.0     -1000.0     -1000.0     -1000.0     -1000.0     -1000.0     -1000.0     -1000.0     -1000.0     -1000.0    
      -1000.0     -1000.0     -1000.0     -1000.0     -1000.0     -1000.0     -1000.0     -1000.0     -1000.0     -1000.0    
      -1000.0     -1000.0     -1000.0     -1000.0     -1000.0     -1000.0     -1000.0     -1000.0     -1000.0     -1000.0    
      -1000.0     -1000.0     -1000.0     -1000.0     -1000.0     -1000.0     -1000.0     -1000.0     -1000.0     -1000.0    
1
              HEAD IN LAYER   2 AT END OF TIME STEP   1 IN STRESS PERIOD    1
  ---------------------------------------------------------------------------

            1           2           3           4           5           6           7           8           9          10
           11          12          13          14          15          16          17          18          19          20
           21          22          23          24          25          26          27          28          29          30
           31          32          33          34          35          36          37          38          39          40
           41          42          43          44          45          46          47          48          49          50
 ........................................................................................................................
   1  -1000.0     -1000.0     -1000.0     -1000.0     -1000.0     -1000.0     -1000.0     -1000.0     -1000.0     -1000.0    
      -1000.0     -1000.0     -1000.0     -1000.0     -1000.0     -1000.0     -1000.0     -1000.0     -1000.0     -1000.0    
      -1000.0     -1000.0     -1000.0     -1000.0     -1000.0     -1000.0     -1000.0     -1000.0     -1000.0     -1000.0    
      -1000.0     -1000.0     -1000.0     -1000.0     -1000.0     -1000.0     -1000.0     -1000.0     -1000.0     -1000.0    
      -1000.0     -1000.0     -1000.0     -1000.0     -1000.0     -1000.0     -1000.0     -1000.0     -1000.0     -1000.0    
   2  -1000.0     -1000.0     -1000.0     -1000.0     -1000.0     -1000.0     -1000.0     -1000.0     -1000.0     -1000.0    
      -1000.0     -1000.0     -1000.0     -1000.0     -1000.0     -1000.0     -1000.0     -1000.0     -1000.0     -1000.0    
      -1000.0     -1000.0     -1000.0       77.01       76.92       76.78       76.62       76.44       76.26       76.07    
        75.90       75.74       75.61       75.52     -1000.0     -1000.0     -1000.0     -1000.0     -1000.0     -1000.0    
      -1000.0     -1000.0     -1000.0     -1000.0     -1000.0     -1000.0     -1000.0     -1000.0     -1000.0     -1000.0    
   3  -1000.0     -1000.0     -1000.0     -1000.0     -1000.0     -1000.0     -1000.0     -1000.0     -1000.0     -1000.0    
      -1000.0     -1000.0     -1000.0     -1000.0     -1000.0     -1000.0     -1000.0     -1000.0     -1000.0     -1000.0    
      -1000.0     -1000.0       77.22       77.10       76.96       76.80       76.63       76.44       76.25       76.07    
        75.88       75.71       75.56       75.43       75.32     -1000.0     -1000.0     -1000.0     -1000.0     -1000.0    
      -1000.0     -1000.0     -1000.0     -1000.0     -1000.0     -1000.0     -1000.0     -1000.0     -1000.0     -1000.0    
   4  -1000.0     -1000.0     -1000.0     -1000.0     -1000.0     -1000.0     -1000.0     -1000.0     -1000.0     -1000.0    
      -1000.0     -1000.0     -1000.0     -1000.0     -1000.0     -1000.0     -1000.0     -1000.0     -1000.0     -1000.0    
      -1000.0     -1000.0       77.34       77.20       77.03       76.85       76.65       76.45       76.25       76.05    
        75.86       75.67       75.49       75.33       75.20     -1000.0     -1000.0     -1000.0     -1000.0     -1000.0    
      -1000.0     -1000.0     -1000.0     -1000.0     -1000.0     -1000.0     -1000.0     -1000.0     -1000.0     -1000.0    
   5  -1000.0     -1000.0     -1000.0     -1000.0     -1000.0     -1000.0     -1000.0     -1000.0     -1000.0     -1000.0    
      -1000.0     -1000.0     -1000.0     -1000.0     -1000.0     -1000.0     -1000.0       78.91       78.78       78.57    
        78.30       77.99       77.60       77.34       77.12       76.90       76.68       76.46       76.25       76.03    
        75.82       75.61       75.41       75.20       74.95       74.59       74.28       74.01       73.76       73.53    
        73.32       73.15       73.00       72.91     -1000.0     -1000.0     -1000.0     -1000.0     -1000.0     -1000.0    
   6  -1000.0     -1000.0     -1000.0     -1000.0     -1000.0     -1000.0     -1000.0     -1000.0     -1000.0     -1000.0    
      -1000.0     -1000.0     -1000.0     -1000.0     -1000.0     -1000.0     -1000.0       79.03       78.87       78.63    
        78.35       78.05       77.73       77.45       77.19       76.94       76.71       76.47       76.24       76.01    
        75.78       75.55       75.33       75.09       74.83       74.53       74.25       73.98       73.73       73.50    
        73.30       73.11       72.95       72.82       72.71     -1000.0     -1000.0     -1000.0     -1000.0     -1000.0    
   7  -1000.0     -1000.0     -1000.0     -1000.0     -1000.0     -1000.0     -1000.0     -1000.0     -1000.0     -1000.0    
      -1000.0     -1000.0     -1000.0       80.57       80.40       80.12       79.76       79.32       79.02       78.73    
        78.43       78.13       77.82       77.53       77.25       76.99       76.73       76.48       76.23       75.98    
        75.74       75.50       75.25       75.00       74.74       74.47       74.20       73.94       73.69       73.46    
        73.24       73.05       72.87       72.72       72.60     -1000.0     -1000.0     -1000.0     -1000.0     -1000.0    
   8  -1000.0     -1000.0     -1000.0     -1000.0     -1000.0     -1000.0     -1000.0     -1000.0     -1000.0     -1000.0    
      -1000.0     -1000.0       80.83       80.68       80.47       80.18       79.85       79.48       79.15       78.83    
        78.52       78.20       77.89       77.59       77.30       77.02       76.74       76.48       76.21       75.95    
        75.70       75.44       75.19       74.93       74.66       74.40       74.13       73.88       73.63       73.39    
        73.17       72.96       72.77       72.57       72.37       72.09       71.89       71.79     -1000.0     -1000.0    
   9  -1000.0     -1000.0     -1000.0     -1000.0     -1000.0     -1000.0     -1000.0     -1000.0     -1000.0     -1000.0    
      -1000.0     -1000.0       80.92       80.80       80.59       80.29       79.95       79.61       79.27       78.93    
        78.60       78.28       77.96       77.64       77.34       77.04       76.75       76.47       76.19       75.92    
        75.65       75.39       75.12       74.85       74.59       74.32       74.06       73.80       73.56       73.32    
        73.09       72.87       72.65       72.44       72.22       72.00       71.81       71.68     -1000.0     -1000.0    
  10  -1000.0     -1000.0     -1000.0     -1000.0     -1000.0     -1000.0     -1000.0     -1000.0     -1000.0     -1000.0    
      -1000.0     -1000.0       81.09       80.97       80.73       80.42       80.08       79.73       79.37       79.03    
        78.68       78.34       78.01       77.68       77.37       77.06       76.76       76.46       76.17       75.88    
        75.60       75.33       75.05       74.78       74.51       74.24       73.98       73.72       73.47       73.23    
        72.99       72.76       72.54       72.31       72.09       71.86       71.65       71.46       71.25     -1000.0    
  11  -1000.0     -1000.0     -1000.0     -1000.0     -1000.0     -1000.0     -1000.0     -1000.0     -1000.0     -1000.0    
      -1000.0     -1000.0       81.34       81.18       80.92       80.57       80.21       79.84       79.48       79.11    
        78.75       78.40       78.06       77.72       77.39       77.06       76.75       76.44       76.14       75.84    
        75.55       75.26       74.98       74.70       74.43       74.16       73.89       73.63       73.38       73.13    
        72.89       72.65       72.42       72.19       71.95       71.71       71.47       71.24       71.04     -1000.0    
  12  -1000.0     -1000.0     -1000.0     -1000.0     -1000.0     -1000.0     -1000.0     -1000.0     -1000.0     -1000.0    
      -1000.0     -1000.0       81.69       81.46       81.13       80.74       80.35       79.96       79.57       79.19    
        78.82       78.45       78.09       77.74       77.40       77.06       76.73       76.41       76.10       75.79    
        75.49       75.20       74.91       74.62       74.34       74.07       73.80       73.54       73.28       73.03    
        72.79       72.54       72.30       72.06       71.81       71.56       71.29       71.00       70.62       70.00    
  13  -1000.0     -1000.0     -1000.0     -1000.0     -1000.0       84.86       84.73       84.51       84.23       83.87    
        83.44       82.91       82.23       81.77       81.35       80.91       80.48       80.07       79.66       79.26    
        78.87       78.49       78.12       77.76       77.40       77.05       76.71       76.38       76.06       75.74    
        75.43       75.12       74.83       74.54       74.25       73.97       73.70       73.44       73.18       72.92    
        72.67       72.43       72.18       71.94       71.68       71.42       71.14       70.83       70.46       70.00    
  14  -1000.0     -1000.0     -1000.0       85.20       85.11       84.94       84.76       84.54       84.25       83.90    
        83.49       83.01       82.49       82.00       81.54       81.06       80.60       80.17       79.74       79.32    
        78.92       78.52       78.14       77.76       77.39       77.03       76.68       76.34       76.00       75.67    
        75.35       75.04       74.74       74.44       74.15       73.87       73.59       73.33       73.06       72.81    
        72.56       72.31       72.06       71.82       71.56       71.30       71.02       70.71       70.37       70.00    
  15  -1000.0     -1000.0       85.31       85.24       85.14       84.99       84.80       84.57       84.28       83.95    
        83.55       83.12       82.64       82.17       81.68       81.18       80.71       80.25       79.81       79.37    
        78.95       78.54       78.14       77.75       77.37       77.00       76.64       76.28       75.94       75.60    
        75.27       74.95       74.64       74.34       74.04       73.76       73.48       73.21       72.95       72.69    
        72.44       72.19       71.95       71.70       71.45       71.19       70.92       70.63       70.32       70.00    
  16  -1000.0     -1000.0       85.33       85.28       85.17       85.03       84.84       84.60       84.32       83.99    
        83.62       83.20       82.75       82.28       81.79       81.28       80.79       80.31       79.86       79.41    
        78.98       78.55       78.14       77.73       77.34       76.96       76.58       76.22       75.86       75.52    
        75.18       74.85       74.53       74.22       73.92       73.63       73.35       73.08       72.82       72.56    
        72.32       72.07       71.83       71.59       71.35       71.10       70.84       70.57       70.29       70.00    
  17  -1000.0     -1000.0       85.36       85.31       85.20       85.06       84.87       84.63       84.36       84.03    
        83.67       83.27       82.83       82.37       81.87       81.35       80.85       80.36       79.89       79.43    
        78.98       78.55       78.12       77.70       77.30       76.91       76.52       76.14       75.78       75.42    
        75.08       74.74       74.41       74.10       73.79       73.50       73.22       72.94       72.68       72.43    
        72.19       71.95       71.71       71.48       71.24       71.01       70.76       70.52       70.26       70.00    
  18  -1000.0     -1000.0       85.40       85.34       85.23       85.08       84.89       84.66       84.39       84.07    
        83.71       83.32       82.89       82.43       81.93       81.40       80.89       80.40       79.91       79.44    
        78.98       78.53       78.09       77.66       77.25       76.84       76.44       76.06       75.68       75.32    
        74.96       74.62       74.28       73.96       73.65       73.35       73.07       72.80       72.54       72.29    
        72.05       71.82       71.59       71.37       71.15       70.92       70.70       70.47       70.24       70.00    
  19  -1000.0       85.50       85.44       85.37       85.26       85.11       84.92       84.68       84.41       84.10    
        83.75       83.36       82.93       82.47       81.97       81.44       80.92       80.41       79.92       79.43    
        78.96       78.50       78.05       77.61       77.18       76.76       76.36       75.96       75.58       75.20    
        74.83       74.48       74.14       73.81       73.49       73.19       72.91       72.64       72.38       72.14    
        71.91       71.68       71.47       71.26       71.05       70.84       70.63       70.42       70.21       70.00    
  20  -1000.0       85.51       85.47       85.39       85.27       85.12       84.93       84.70       84.43       84.12    
        83.77       83.38       82.95       82.49       81.99       81.45       80.93       80.41       79.91       79.41    
        78.93       78.45       77.99       77.54       77.10       76.67       76.26       75.85       75.46       75.07    
        74.70       74.33       73.98       73.64       73.32       73.01       72.73       72.46       72.21       71.97    
        71.75       71.54       71.34       71.14       70.95       70.76       70.57       70.38       70.19       70.00    
  21  -1000.0       85.52       85.47       85.40       85.28       85.13       84.94       84.71       84.44       84.13    
        83.78       83.39       82.96       82.50       82.00       81.45       80.92       80.40       79.88       79.38    
        78.88       78.39       77.92       77.45       77.00       76.57       76.14       75.73       75.33       74.93    
        74.54       74.16       73.80       73.45       73.12       72.82       72.53       72.27       72.02       71.79    
        71.58       71.39       71.20       71.02       70.84       70.67       70.50       70.34       70.17       70.00    
  22  -1000.0       85.51       85.47       85.40       85.28       85.13       84.94       84.71       84.44       84.13    
        83.78       83.39       82.96       82.50       81.99       81.44       80.90       80.37       79.85       79.33    
        78.82       78.32       77.83       77.35       76.89       76.45       76.02       75.60       75.19       74.78    
        74.38       73.98       73.60       73.24       72.91       72.60       72.31       72.05       71.81       71.60    
        71.40       71.22       71.05       70.89       70.74       70.59       70.44       70.29       70.15       70.00    
  23  -1000.0       85.51       85.47       85.39       85.27       85.12       84.93       84.69       84.43       84.12    
        83.77       83.38       82.95       82.48       81.97       81.42       80.88       80.34       79.80       79.27    
        78.75       78.23       77.72       77.23       76.76       76.31       75.88       75.46       75.04       74.62    
        74.20       73.79       73.39       73.01       72.66       72.35       72.06       71.81       71.58       71.38    
        71.21       71.04       70.90       70.76       70.62       70.49       70.37       70.25       70.12       70.00    
  24  -1000.0       85.49       85.45       85.37       85.25       85.10       84.91       84.68       84.41       84.10    
        83.75       83.36       82.93       82.46       81.94       81.39       80.84       80.29       79.75       79.21    
        78.67       78.13       77.60       77.09       76.60       76.15       75.72       75.31       74.90       74.47    
        74.02       73.57       73.14       72.75       72.39       72.06       71.78       71.54       71.33       71.15    
        70.99       70.85       70.73       70.61       70.51       70.40       70.30       70.20       70.10       70.00    
  25  -1000.0       85.47       85.42       85.34       85.22       85.07       84.88       84.65       84.38       84.07    
        83.72       83.33       82.90       82.42       81.91       81.35       80.79       80.24       79.69       79.14    
        78.58       78.02       77.46       76.92       76.40       75.95       75.55       75.16       74.76       74.33    
        73.83       73.33       72.87       72.44       72.07       71.74       71.46       71.23       71.04       70.89    
        70.76       70.65       70.55       70.47       70.38       70.31       70.23       70.15       70.08       70.00    
  26  -1000.0       85.45       85.38       85.30       85.18       85.03       84.84       84.61       84.34       84.03    
        83.68       83.29       82.86       82.38       81.86       81.30       80.74       80.18       79.62       79.06    
        78.50       77.92       77.29       76.72       76.13       75.72       75.36       75.02       74.67       74.24    
        73.63       73.05       72.55       72.09       71.69       71.36       71.09       70.88       70.72       70.60    
        70.50       70.43       70.37       70.31       70.26       70.21       70.16       70.10       70.05       70.00    
  27  -1000.0     -1000.0       85.31       85.25       85.14       84.99       84.79       84.56       84.29       83.99    
        83.63       83.24       82.81       82.33       81.81       81.24       80.67       80.11       79.55       78.99    
        78.43       77.85       77.26       76.70       76.15       75.67       75.22       74.79       74.34       73.84    
        73.28       72.71       72.17       71.68       71.25       70.91       70.65       70.47       70.35       70.28    
        70.23       70.20       70.17       70.15       70.13       70.11       70.08       70.06       70.03       70.00    
  28  -1000.0     -1000.0       85.25       85.19       85.08       84.93       84.74       84.51       84.24       83.93    
        83.58       83.19       82.75       82.27       81.74       81.17       80.61       80.04       79.48       78.93    
        78.36       77.79       77.22       76.65       76.10       75.57       75.07       74.57       74.06       73.51    
        72.92       72.32       71.74       71.20       70.73       70.37       70.13       70.00       69.94       69.93    
        69.94       69.96       69.98       70.00       70.01       70.01       70.01       70.01       70.01       70.00    
  29  -1000.0     -1000.0       85.20       85.14       85.03       84.87       84.67       84.45       84.18       83.87    
        83.52       83.13       82.69       82.20       81.67       81.10       80.53       79.97       79.41       78.86    
        78.30       77.73       77.16       76.58       76.01       75.46       74.91       74.37       73.81       73.21    
        72.57       71.91       71.26       70.63       70.09       69.69       69.50       69.45       69.48       69.56    
        69.64       69.72       69.79       69.84       69.89       69.92       69.95       69.97       69.98       70.00    
  30  -1000.0     -1000.0       85.16       85.10       84.97       84.79       84.60       84.37       84.11       83.80    
        83.45       83.06       82.62       82.13       81.59       81.02       80.45       79.88       79.33       78.78    
        78.24       77.68       77.10       76.50       75.91       75.32       74.75       74.18       73.58       72.94    
        72.23       71.50       70.73       69.98       69.29       68.82       68.70       68.80       68.99       69.18    
        69.35       69.49       69.61       69.70       69.78       69.84       69.89       69.93       69.97       70.00    
  31  -1000.0     -1000.0       85.14       85.07       84.93       84.69       84.50       84.29       84.03       83.73    
        83.38       82.99       82.54       82.05       81.51       80.92       80.35       79.79       79.24       78.71    
        78.20       77.64       77.04       76.41       75.78       75.17       74.59       74.01       73.40       72.72    
        71.92       71.09       70.20       69.23       68.27       67.56       67.69       68.08       68.47       68.81    
        69.08       69.28       69.45       69.58       69.68       69.76       69.83       69.89       69.95       70.00    
  32  -1000.0     -1000.0     -1000.0     -1000.0     -1000.0       84.49       84.37       84.19       83.96       83.66    
        83.32       82.91       82.46       81.96       81.41       80.82       80.24       79.67       79.12       78.59    
        78.09       77.52       76.87       76.19       75.50       74.86       74.28       73.74       73.15       72.47    
        71.64       70.74       69.71       68.47       66.96       65.42       66.38       67.33       68.02       68.51    
        68.86       69.12       69.32       69.48       69.60       69.70       69.79       69.87       69.93       70.00    
  33  -1000.0     -1000.0     -1000.0     -1000.0     -1000.0       84.36       84.27       84.11       83.88       83.60    
        83.25       82.84       82.38       81.86       81.30       80.70       80.11       79.54       78.98       78.44    
        77.93       77.32       76.61       75.84       75.04       74.33       73.81       73.35       72.85       72.22    
        71.41       70.50       69.40       67.94       65.61       60.52       65.03       66.83       67.76       68.34    
        68.74       69.02       69.24       69.41       69.54       69.66       69.76       69.84       69.92       70.00    
  34  -1000.0     -1000.0     -1000.0     -1000.0     -1000.0       84.26       84.19       84.04       83.83       83.54    
        83.19       82.78       82.30       81.76       81.18       80.56       79.96       79.38       78.82       78.27    
        77.73       77.07       76.28       75.36       74.36       73.46       73.12       72.88       72.54       72.01    
        71.28       70.43       69.44       68.23       66.73       65.21       66.18       67.15       67.85       68.35    
        68.72       68.99       69.20       69.37       69.51       69.63       69.74       69.83       69.92       70.00    
  35  -1000.0     -1000.0     -1000.0     -1000.0     -1000.0       84.20       84.13       83.99       83.78       83.51    
        83.16       82.73       82.22       81.65       81.04       80.40       79.78       79.20       78.63       78.08    
        77.53       76.83       75.94       74.81       73.40       71.88       72.17       72.37       72.26       71.87    
        71.24       70.51       69.68       68.76       67.83       67.15       67.30       67.72       68.14       68.50    
        68.79       69.02       69.21       69.36       69.50       69.62       69.72       69.82       69.91       70.00    
  36  -1000.0     -1000.0     -1000.0     -1000.0     -1000.0       84.16       84.09       83.96       83.77       83.50    
        83.14       82.70       82.16       81.54       80.87       80.20       79.58       78.99       78.44       77.89    
        77.34       76.62       75.69       74.40       72.37       68.24       71.16       72.01       72.12       71.84    
        71.30       70.67       69.99       69.29       68.65       68.22       68.14       68.28       68.49       68.71    
        68.91       69.09       69.24       69.38       69.50       69.62       69.72       69.82       69.91       70.00    
  37  -1000.0     -1000.0     -1000.0     -1000.0     -1000.0       84.13       84.07       83.95       83.77       83.52    
        83.18       82.72       82.11       81.42       80.66       79.95       79.32       78.76       78.22       77.70    
        77.18       76.50       75.64       74.54       73.16       71.67       72.01       72.26       72.23       71.93    
        71.43       70.88       70.30       69.75       69.26       68.92       68.76       68.76       68.83       68.95    
        69.07       69.18       69.29       69.41       69.52       69.62       69.73       69.82       69.91       70.00    
  38  -1000.0     -1000.0     -1000.0     -1000.0     -1000.0       84.12       84.06       83.96       83.81       83.58    
        83.27       82.83       82.10       81.31       80.35       79.60       79.01       78.48       77.99       77.51    
        77.03       76.42       75.68       74.81       73.87       73.05       72.79       72.65       72.45       72.10    
        71.61       71.10       70.60       70.13       69.72       69.42       69.23       69.15       69.14       69.17    
        69.22       69.27       69.34       69.43       69.53       69.64       69.74       69.83       69.92       70.00    
  39  -1000.0     -1000.0     -1000.0     -1000.0     -1000.0     -1000.0       84.04       83.98       83.86       83.69    
        83.46       83.17     -1000.0     -1000.0       79.75       79.10       78.61       78.17       77.74       77.31    
        76.88       76.35       75.72       75.02       74.31       73.69       73.29       72.98       72.67       72.28    
        71.79       71.31       70.86       70.44       70.08       69.79       69.59       69.46       69.40       69.38    
        69.37       69.34       69.38       69.45       69.54       69.65       69.76       69.85       69.93       70.00    
  40  -1000.0     -1000.0     -1000.0     -1000.0     -1000.0     -1000.0       84.04       83.99       83.91       83.80    
        83.65     -1000.0     -1000.0     -1000.0     -1000.0       78.42       78.18       77.85       77.48       77.10    
        76.71       76.23       75.68       75.09       74.51       73.99       73.56       73.19       72.82       72.42    
        71.94       71.50       71.08       70.70       70.36       70.08       69.87       69.72       69.62       69.57    
        69.55     -1000.0     -1000.0     -1000.0     -1000.0     -1000.0       69.82       69.87       69.94       70.00    
  41  -1000.0     -1000.0     -1000.0     -1000.0     -1000.0     -1000.0     -1000.0       84.00       83.95       83.90    
      -1000.0     -1000.0     -1000.0     -1000.0     -1000.0       77.97       77.82       77.56       77.25       76.89    
        76.49       76.04       75.54       75.03       74.52       74.05       73.63       73.24       72.87       72.48    
        72.07       71.66       71.27       70.90       70.57       70.30       70.08       69.92       69.80       69.74    
        69.70     -1000.0     -1000.0     -1000.0     -1000.0     -1000.0     -1000.0     -1000.0       69.97       70.00    
  42  -1000.0     -1000.0     -1000.0     -1000.0     -1000.0     -1000.0     -1000.0     -1000.0     -1000.0     -1000.0    
      -1000.0     -1000.0     -1000.0     -1000.0     -1000.0       77.69       77.55       77.34       77.06       76.72    
        76.33       75.89       75.42       74.95       74.49       74.06       73.66       73.29       72.93       72.57    
        72.20       71.81       71.42       71.06       70.73       70.46       70.23       70.06       69.94       69.86    
        69.83     -1000.0     -1000.0     -1000.0     -1000.0     -1000.0     -1000.0     -1000.0     -1000.0     -1000.0    
  43  -1000.0     -1000.0     -1000.0     -1000.0     -1000.0     -1000.0     -1000.0     -1000.0     -1000.0     -1000.0    
      -1000.0     -1000.0     -1000.0     -1000.0     -1000.0       77.53       77.37       77.18       76.92       76.59    
        76.21       75.77       75.30       74.85       74.42       74.03       73.66       73.32       72.99       72.66    
        72.33       71.96       71.55       71.18       70.85       70.57       70.34       70.16       70.03       69.95    
        69.91     -1000.0     -1000.0     -1000.0     -1000.0     -1000.0     -1000.0     -1000.0     -1000.0     -1000.0    
  44  -1000.0     -1000.0     -1000.0     -1000.0     -1000.0     -1000.0     -1000.0     -1000.0     -1000.0     -1000.0    
      -1000.0     -1000.0     -1000.0     -1000.0     -1000.0     -1000.0       77.23       77.08       76.84       76.53    
        76.14       75.69       75.15       74.73       74.33       73.96       73.64       73.34       73.05       72.77    
        72.48       72.16       71.65       71.24       70.90       70.62       70.39       70.21       70.08       69.99    
        69.95     -1000.0     -1000.0     -1000.0     -1000.0     -1000.0     -1000.0     -1000.0     -1000.0     -1000.0    
  45  -1000.0     -1000.0     -1000.0     -1000.0     -1000.0     -1000.0     -1000.0     -1000.0     -1000.0     -1000.0    
      -1000.0     -1000.0     -1000.0     -1000.0     -1000.0     -1000.0     -1000.0     -1000.0     -1000.0     -1000.0    
      -1000.0     -1000.0       74.87       74.60       74.18       73.86       73.59       73.34       73.10       72.88    
        72.68       72.52     -1000.0     -1000.0     -1000.0     -1000.0     -1000.0     -1000.0     -1000.0     -1000.0    
      -1000.0     -1000.0     -1000.0     -1000.0     -1000.0     -1000.0     -1000.0     -1000.0     -1000.0     -1000.0    
  46  -1000.0     -1000.0     -1000.0     -1000.0     -1000.0     -1000.0     -1000.0     -1000.0     -1000.0     -1000.0    
      -1000.0     -1000.0     -1000.0     -1000.0     -1000.0     -1000.0     -1000.0     -1000.0     -1000.0     -1000.0    
      -1000.0     -1000.0     -1000.0     -1000.0       73.95       73.71       73.51       73.32       73.14       72.97    
        72.83       72.72     -1000.0     -1000.0     -1000.0     -1000.0     -1000.0     -1000.0     -1000.0     -1000.0    
      -1000.0     -1000.0     -1000.0     -1000.0     -1000.0     -1000.0     -1000.0     -1000.0     -1000.0     -1000.0    
  47  -1000.0     -1000.0     -1000.0     -1000.0     -1000.0     -1000.0     -1000.0     -1000.0     -1000.0     -1000.0    
      -1000.0     -1000.0     -1000.0     -1000.0     -1000.0     -1000.0     -1000.0     -1000.0     -1000.0     -1000.0    
      -1000.0     -1000.0     -1000.0     -1000.0     -1000.0       73.52       73.43       73.30       73.17       73.04    
        72.93       72.83     -1000.0     -1000.0     -1000.0     -1000.0     -1000.0     -1000.0     -1000.0     -1000.0    
      -1000.0     -1000.0     -1000.0     -1000.0     -1000.0     -1000.0     -1000.0     -1000.0     -1000.0     -1000.0    
  48  -1000.0     -1000.0     -1000.0     -1000.0     -1000.0     -1000.0     -1000.0     -1000.0     -1000.0     -1000.0    
      -1000.0     -1000.0     -1000.0     -1000.0     -1000.0     -1000.0     -1000.0     -1000.0     -1000.0     -1000.0    
      -1000.0     -1000.0     -1000.0     -1000.0     -1000.0       73.43       73.37       73.29       73.19       73.10    
        73.01     -1000.0     -1000.0     -1000.0     -1000.0     -1000.0     -1000.0     -1000.0     -1000.0     -1000.0    
      -1000.0     -1000.0     -1000.0     -1000.0     -1000.0     -1000.0     -1000.0     -1000.0     -1000.0     -1000.0    
  49  -1000.0     -1000.0     -1000.0     -1000.0     -1000.0     -1000.0     -1000.0     -1000.0     -1000.0     -1000.0    
      -1000.0     -1000.0     -1000.0     -1000.0     -1000.0     -1000.0     -1000.0     -1000.0     -1000.0     -1000.0    
      -1000.0     -1000.0     -1000.0     -1000.0     -1000.0       73.39       73.35       73.28       73.21       73.15    
      -1000.0     -1000.0     -1000.0     -1000.0     -1000.0     -1000.0     -1000.0     -1000.0     -1000.0     -1000.0    
      -1000.0     -1000.0     -1000.0     -1000.0     -1000.0     -1000.0     -1000.0     -1000.0     -1000.0     -1000.0    
  50  -1000.0     -1000.0     -1000.0     -1000.0     -1000.0     -1000.0     -1000.0     -1000.0     -1000.0     -1000.0    
      -1000.0     -1000.0     -1000.0     -1000.0     -1000.0     -1000.0     -1000.0     -1000.0     -1000.0     -1000.0    
      -1000.0     -1000.0     -1000.0     -1000.0     -1000.0     -1000.0     -1000.0     -1000.0     -1000.0     -1000.0    
      -1000.0     -1000.0     -1000.0     -1000.0     -1000.0     -1000.0     -1000.0     -1000.0     -1000.0     -1000.0    
      -1000.0     -1000.0     -1000.0     -1000.0     -1000.0     -1000.0     -1000.0     -1000.0     -1000.0     -1000.0    

 HEAD WILL BE SAVED ON UNIT   51 AT END OF TIME STEP    1, STRESS PERIOD    1
1
  VOLUMETRIC BUDGET FOR ENTIRE MODEL AT END OF TIME STEP    1, STRESS PERIOD   1
  ------------------------------------------------------------------------------

     CUMULATIVE VOLUMES      L**3       RATES FOR THIS TIME STEP      L**3/T
     ------------------                 ------------------------

           IN:                                      IN:
           ---                                      ---
             STORAGE =           0.0000               STORAGE =           0.0000
       CONSTANT HEAD =         583.4692         CONSTANT HEAD =         583.4692
               WELLS =           0.0000                 WELLS =           0.0000
                  ET =           0.0000                    ET =           0.0000
            RECHARGE =       24120.0000              RECHARGE =       24120.0000
      STREAM LEAKAGE =         761.0626        STREAM LEAKAGE =         761.0626

            TOTAL IN =       25464.5312              TOTAL IN =       25464.5312

          OUT:                                     OUT:
          ----                                     ----
             STORAGE =           0.0000               STORAGE =           0.0000
       CONSTANT HEAD =        2572.1985         CONSTANT HEAD =        2572.1985
               WELLS =       22000.0000                 WELLS =       22000.0000
                  ET =         131.2687                    ET =         131.2687
            RECHARGE =           0.0000              RECHARGE =           0.0000
      STREAM LEAKAGE =         761.0627        STREAM LEAKAGE =         761.0627

           TOTAL OUT =       25464.5312             TOTAL OUT =       25464.5312

            IN - OUT =           0.0000              IN - OUT =           0.0000

 PERCENT DISCREPANCY =           0.00     PERCENT DISCREPANCY =           0.00






         TIME SUMMARY AT END OF TIME STEP    1 IN STRESS PERIOD    1
                    SECONDS     MINUTES      HOURS       DAYS        YEARS
                    -----------------------------------------------------------
   TIME STEP LENGTH  86400.      1440.0      24.000      1.0000     2.73785E-03
 STRESS PERIOD TIME  86400.      1440.0      24.000      1.0000     2.73785E-03
         TOTAL TIME  86400.      1440.0      24.000      1.0000     2.73785E-03
1

 Run end date and time (yyyy/mm/dd hh:mm:ss): 2021/12/01 19:43:42
 Elapsed run time:  0.148 Seconds

