                                  MODFLOW-2005     
      U.S. GEOLOGICAL SURVEY MODULAR FINITE-DIFFERENCE GROUND-WATER FLOW MODEL
                            VERSION 1.12.00 2/3/2017

 LIST FILE: evapotranspiration.list
                         UNIT    2

 OPENING evapotranspiration.dis
 FILE TYPE:DIS   UNIT   11   STATUS:OLD    
 FORMAT:FORMATTED              ACCESS:SEQUENTIAL          

 OPENING evapotranspiration.bas
 FILE TYPE:BAS6   UNIT   13   STATUS:OLD    
 FORMAT:FORMATTED              ACCESS:SEQUENTIAL          

 OPENING evapotranspiration.lpf
 FILE TYPE:LPF   UNIT   15   STATUS:OLD    
 FORMAT:FORMATTED              ACCESS:SEQUENTIAL          

 OPENING evapotranspiration.oc
 FILE TYPE:OC   UNIT   14   STATUS:OLD    
 FORMAT:FORMATTED              ACCESS:SEQUENTIAL          

 OPENING evapotranspiration.pcg
 FILE TYPE:PCG   UNIT   27   STATUS:OLD    
 FORMAT:FORMATTED              ACCESS:SEQUENTIAL          

 OPENING evapotranspiration.rch
 FILE TYPE:RCH   UNIT   19   STATUS:OLD    
 FORMAT:FORMATTED              ACCESS:SEQUENTIAL          

 OPENING evapotranspiration.str
 FILE TYPE:STR   UNIT  118   STATUS:OLD    
 FORMAT:FORMATTED              ACCESS:SEQUENTIAL          

 OPENING evapotranspiration.evt
 FILE TYPE:EVT   UNIT   22   STATUS:OLD    
 FORMAT:FORMATTED              ACCESS:SEQUENTIAL          

 OPENING evapotranspiration.cbc
 FILE TYPE:DATA(BINARY)   UNIT   53   STATUS:REPLACE
 FORMAT:BINARY                 ACCESS:SEQUENTIAL          

 OPENING evapotranspiration.hds
 FILE TYPE:DATA(BINARY)   UNIT   51   STATUS:REPLACE
 FORMAT:BINARY                 ACCESS:SEQUENTIAL          

 BAS -- BASIC PACKAGE, VERSION 7, 5/2/2005 INPUT READ FROM UNIT   13
 
 MODFLOW was compiled using mixed precision
 Precision of REAL variables:           6
 Precision of DOUBLE PRECISION variables:          15

 DISCRETIZATION INPUT DATA READ FROM UNIT   11
 # DIS package for  MODFLOW-2005, generated by Flopy.
    2 LAYERS        50 ROWS        50 COLUMNS
    1 STRESS PERIOD(S) IN SIMULATION
 MODEL TIME UNIT IS DAYS
 MODEL LENGTH UNIT IS METERS
  Confining bed flag for each layer:
   0   0

                     DELR =   1000.00    

                     DELC =   1000.00    



           TOP ELEVATION OF LAYER 1
 READING ON UNIT   11 WITH FORMAT: (50E15.6)           



             MODEL LAYER BOTTOM EL. FOR LAYER   1
 READING ON UNIT   11 WITH FORMAT: (50E15.6)           



             MODEL LAYER BOTTOM EL. FOR LAYER   2
 READING ON UNIT   11 WITH FORMAT: (50E15.6)           


 STRESS PERIOD     LENGTH       TIME STEPS     MULTIPLIER FOR DELT    SS FLAG
 ----------------------------------------------------------------------------
        1         1.000000          1                    1.000         SS

 STEADY-STATE SIMULATION



 
 # BAS6 package for  MODFLOW-2005, generated by Flopy.                           
 THE FREE FORMAT OPTION HAS BEEN SELECTED



                     BOUNDARY ARRAY FOR LAYER   1
 READING ON UNIT   13 WITH FORMAT: (50I10)             



                     BOUNDARY ARRAY FOR LAYER   2
 READING ON UNIT   13 WITH FORMAT: (50I10)             

 AQUIFER HEAD WILL BE SET TO  -999.99     AT ALL NO-FLOW NODES (IBOUND=0).



                       INITIAL HEAD FOR LAYER   1
 READING ON UNIT   13 WITH FORMAT: (50E15.6)           



                       INITIAL HEAD FOR LAYER   2
 READING ON UNIT   13 WITH FORMAT: (50E15.6)           
 # OC package for  MODFLOW-2005, generated by Flopy.

 OUTPUT CONTROL IS SPECIFIED ONLY AT TIME STEPS FOR WHICH OUTPUT IS DESIRED
 COMPACT CELL-BY-CELL BUDGET FILES WILL BE WRITTEN
 AUXILIARY DATA WILL BE SAVED IN CELL-BY-CELL BUDGET FILES
 HEAD PRINT FORMAT CODE IS   0    DRAWDOWN PRINT FORMAT CODE IS   0
 HEADS WILL BE SAVED ON UNIT   51    DRAWDOWNS WILL BE SAVED ON UNIT    0

 LPF -- LAYER-PROPERTY FLOW PACKAGE, VERSION 7, 5/2/2005
         INPUT READ FROM UNIT   15
 # LPF package for  MODFLOW-2005, generated by Flopy.
 CELL-BY-CELL FLOWS WILL BE SAVED ON UNIT   53
 HEAD AT CELLS THAT CONVERT TO DRY= -1.00000E+30
 No named parameters

   LAYER FLAGS:
 LAYER       LAYTYP        LAYAVG         CHANI        LAYVKA        LAYWET
 ---------------------------------------------------------------------------
    1             1             0     0.000E+00             0             0
    2             1             0     0.000E+00             0             0

   INTERPRETATION OF LAYER FLAGS:
                        INTERBLOCK     HORIZONTAL    DATA IN
         LAYER TYPE   TRANSMISSIVITY   ANISOTROPY   ARRAY VKA   WETTABILITY
 LAYER      (LAYTYP)      (LAYAVG)       (CHANI)      (LAYVKA)      (LAYWET)
 ---------------------------------------------------------------------------
    1   CONVERTIBLE      HARMONIC      VARIABLE    VERTICAL K  NON-WETTABLE
    2   CONVERTIBLE      HARMONIC      VARIABLE    VERTICAL K  NON-WETTABLE

 WETTING CAPABILITY IS NOT ACTIVE IN ANY LAYER

    HYD. COND. ALONG ROWS =   10.0000     FOR LAYER   1

   HORIZ. ANI. (COL./ROW) =   1.00000     FOR LAYER   1

      VERTICAL HYD. COND. =   10.0000     FOR LAYER   1

    HYD. COND. ALONG ROWS =   10.0000     FOR LAYER   2

   HORIZ. ANI. (COL./ROW) =   1.00000     FOR LAYER   2

      VERTICAL HYD. COND. =   10.0000     FOR LAYER   2

 EVT -- EVAPOTRANSPIRATION PACKAGE, VERSION 7, 5/2/2005
         INPUT READ FROM UNIT   22
 # EVT package for  MODFLOW-2005, generated by Flopy.
 No named parameters
 OPTION 3 -- EVAPOTRANSPIRATION FROM HIGHEST ACTIVE NODE IN EACH VERTICAL COLUMN
 CELL-BY-CELL FLOWS WILL BE SAVED ON UNIT   53


     0 Evapotranspiration parameters

 RCH -- RECHARGE PACKAGE, VERSION 7, 5/2/2005 INPUT READ FROM UNIT   19
 # RCH package for  MODFLOW-2005, generated by Flopy.
 No named parameters
 OPTION 3 -- RECHARGE TO HIGHEST ACTIVE NODE IN EACH VERTICAL COLUMN


     0 Recharge parameters

 STR -- STREAM PACKAGE, VERSION 7, 5/2/2005 INPUT READ FROM UNIT  118
 # STR package for  MODFLOW-2005, generated by Flopy.
 No named parameters
 MAXIMUM OF     44 ACTIVE STREAM NODES AT ONE TIME
 NUMBER OF STREAM SEGMENTS IS      1
 NUMBER OF STREAM TRIBUTARIES IS      0
 CELL BUDGETS WILL BE SAVED ON UNITS   53 AND   53


     0 Stream parameters

 PCG -- CONJUGATE-GRADIENT SOLUTION PACKAGE, VERSION 7, 5/2/2005
 # PCG package for  MODFLOW-2005, generated by Flopy.
 MAXIMUM OF     50 CALLS OF SOLUTION ROUTINE
 MAXIMUM OF     30 INTERNAL ITERATIONS PER CALL TO SOLUTION ROUTINE
 MATRIX PRECONDITIONING TYPE :    1



                                    SOLUTION BY THE CONJUGATE-GRADIENT METHOD
                                   -------------------------------------------
                    MAXIMUM NUMBER OF CALLS TO PCG ROUTINE =       50
                        MAXIMUM ITERATIONS PER CALL TO PCG =       30
                               MATRIX PRECONDITIONING TYPE =        1
        RELAXATION FACTOR (ONLY USED WITH PRECOND. TYPE 1) =    0.10000E+01
 PARAMETER OF POLYNOMIAL PRECOND. = 2 (2) OR IS CALCULATED :        0
                         HEAD CHANGE CRITERION FOR CLOSURE =    0.10000E-04
                     RESIDUAL CHANGE CRITERION FOR CLOSURE =    0.10000E-04
            PCG HEAD AND RESIDUAL CHANGE PRINTOUT INTERVAL =      999
     PRINTING FROM SOLVER IS LIMITED(1) OR SUPPRESSED (>1) =        3
                            STEADY-STATE DAMPING PARAMETER =    0.10000E+01
                               TRANSIENT DAMPING PARAMETER =    0.10000E+01
1
                            STRESS PERIOD NO.    1, LENGTH =   1.000000    
                            -----------------------------------------------

                              NUMBER OF TIME STEPS =     1

                               MULTIPLIER FOR DELT =     1.000

                            INITIAL TIME STEP SIZE =   1.000000    



                         ET SURFACE
 READING ON UNIT   22 WITH FORMAT: (50E15.6)           



            EVAPOTRANSPIRATION RATE
 READING ON UNIT   22 WITH FORMAT: (50E15.6)           



                   EXTINCTION DEPTH
 READING ON UNIT   22 WITH FORMAT: (50E15.6)           



                           RECHARGE
 READING ON UNIT   19 WITH FORMAT: (50E15.6)           

     44 STREAM REACHES
 
 SOLVING FOR HEAD 

 OUTPUT CONTROL FOR STRESS PERIOD    1   TIME STEP    1
    PRINT HEAD FOR ALL LAYERS
    PRINT BUDGET
    SAVE HEAD FOR ALL LAYERS
    SAVE BUDGET
 UBDSV2 SAVING "   CONSTANT HEAD" ON UNIT  53 AT TIME STEP  1, STRESS PERIOD   1
 UBDSV1 SAVING "FLOW RIGHT FACE " ON UNIT  53 AT TIME STEP  1, STRESS PERIOD   1
 UBDSV1 SAVING "FLOW FRONT FACE " ON UNIT  53 AT TIME STEP  1, STRESS PERIOD   1
 UBDSV1 SAVING "FLOW LOWER FACE " ON UNIT  53 AT TIME STEP  1, STRESS PERIOD   1
 UBDSV3 SAVING "              ET" ON UNIT  53 AT TIME STEP  1, STRESS PERIOD   1
 UBDSV4 SAVING "  STREAM LEAKAGE" ON UNIT  53 AT TIME STEP  1, STRESS PERIOD   1
 UBDSV4 SAVING "STREAM FLOW OUT " ON UNIT  53 AT TIME STEP  1, STRESS PERIOD   1
1
              HEAD IN LAYER   1 AT END OF TIME STEP   1 IN STRESS PERIOD    1
  ---------------------------------------------------------------------------

            1           2           3           4           5           6           7           8           9          10
           11          12          13          14          15          16          17          18          19          20
           21          22          23          24          25          26          27          28          29          30
           31          32          33          34          35          36          37          38          39          40
           41          42          43          44          45          46          47          48          49          50
 ........................................................................................................................
   1  -1000.0     -1000.0     -1000.0     -1000.0     -1000.0     -1000.0     -1000.0     -1000.0     -1000.0     -1000.0    
      -1000.0     -1000.0     -1000.0     -1000.0     -1000.0     -1000.0     -1000.0     -1000.0     -1000.0     -1000.0    
      -1000.0     -1000.0     -1000.0     -1000.0     -1000.0     -1000.0     -1000.0     -1000.0     -1000.0     -1000.0    
      -1000.0     -1000.0     -1000.0     -1000.0     -1000.0     -1000.0     -1000.0     -1000.0     -1000.0     -1000.0    
      -1000.0     -1000.0     -1000.0     -1000.0     -1000.0     -1000.0     -1000.0     -1000.0     -1000.0     -1000.0    
   2  -1000.0     -1000.0     -1000.0     -1000.0     -1000.0     -1000.0     -1000.0     -1000.0     -1000.0     -1000.0    
      -1000.0     -1000.0     -1000.0     -1000.0     -1000.0     -1000.0     -1000.0     -1000.0     -1000.0     -1000.0    
      -1000.0     -1000.0     -1000.0       78.95       78.86       78.71       78.53       78.33       78.13       77.94    
        77.74       77.57       77.42       77.32     -1000.0     -1000.0     -1000.0     -1000.0     -1000.0     -1000.0    
      -1000.0     -1000.0     -1000.0     -1000.0     -1000.0     -1000.0     -1000.0     -1000.0     -1000.0     -1000.0    
   3  -1000.0     -1000.0     -1000.0     -1000.0     -1000.0     -1000.0     -1000.0     -1000.0     -1000.0     -1000.0    
      -1000.0     -1000.0     -1000.0     -1000.0     -1000.0     -1000.0     -1000.0     -1000.0     -1000.0     -1000.0    
      -1000.0     -1000.0       79.18       79.05       78.91       78.73       78.54       78.34       78.13       77.93    
        77.73       77.54       77.37       77.22       77.09     -1000.0     -1000.0     -1000.0     -1000.0     -1000.0    
      -1000.0     -1000.0     -1000.0     -1000.0     -1000.0     -1000.0     -1000.0     -1000.0     -1000.0     -1000.0    
   4  -1000.0     -1000.0     -1000.0     -1000.0     -1000.0     -1000.0     -1000.0     -1000.0     -1000.0     -1000.0    
      -1000.0     -1000.0     -1000.0     -1000.0     -1000.0     -1000.0     -1000.0     -1000.0     -1000.0     -1000.0    
      -1000.0     -1000.0       79.31       79.17       78.98       78.78       78.57       78.35       78.13       77.91    
        77.70       77.49       77.29       77.11       76.96     -1000.0     -1000.0     -1000.0     -1000.0     -1000.0    
      -1000.0     -1000.0     -1000.0     -1000.0     -1000.0     -1000.0     -1000.0     -1000.0     -1000.0     -1000.0    
   5  -1000.0     -1000.0     -1000.0     -1000.0     -1000.0     -1000.0     -1000.0     -1000.0     -1000.0     -1000.0    
      -1000.0     -1000.0     -1000.0     -1000.0     -1000.0     -1000.0     -1000.0       80.99       80.86       80.63    
        80.35       80.01       79.59       79.32       79.07       78.84       78.60       78.36       78.13       77.89    
        77.66       77.43       77.20       76.96       76.69       76.27       75.91       75.58       75.28       75.00    
        74.75       74.53       74.35       74.23     -1000.0     -1000.0     -1000.0     -1000.0     -1000.0     -1000.0    
   6  -1000.0     -1000.0     -1000.0     -1000.0     -1000.0     -1000.0     -1000.0     -1000.0     -1000.0     -1000.0    
      -1000.0     -1000.0     -1000.0     -1000.0     -1000.0     -1000.0     -1000.0       81.12       80.95       80.70    
        80.40       80.08       79.73       79.43       79.15       78.89       78.63       78.38       78.12       77.87    
        77.62       77.37       77.11       76.85       76.55       76.21       75.88       75.56       75.26       74.98    
        74.72       74.48       74.28       74.11       73.97     -1000.0     -1000.0     -1000.0     -1000.0     -1000.0    
   7  -1000.0     -1000.0     -1000.0     -1000.0     -1000.0     -1000.0     -1000.0     -1000.0     -1000.0     -1000.0    
      -1000.0     -1000.0     -1000.0       82.74       82.57       82.27       81.90       81.43       81.11       80.80    
        80.49       80.16       79.83       79.52       79.22       78.94       78.66       78.39       78.12       77.85    
        77.58       77.31       77.04       76.76       76.46       76.14       75.82       75.51       75.21       74.93    
        74.66       74.41       74.18       73.98       73.82     -1000.0     -1000.0     -1000.0     -1000.0     -1000.0    
   8  -1000.0     -1000.0     -1000.0     -1000.0     -1000.0     -1000.0     -1000.0     -1000.0     -1000.0     -1000.0    
      -1000.0     -1000.0       83.01       82.86       82.65       82.34       81.99       81.60       81.25       80.91    
        80.58       80.24       79.91       79.59       79.28       78.98       78.68       78.39       78.11       77.83    
        77.54       77.26       76.98       76.68       76.38       76.07       75.76       75.45       75.15       74.86    
        74.58       74.31       74.05       73.79       73.52       73.12       72.85       72.70     -1000.0     -1000.0    
   9  -1000.0     -1000.0     -1000.0     -1000.0     -1000.0     -1000.0     -1000.0     -1000.0     -1000.0     -1000.0    
      -1000.0     -1000.0       83.12       82.99       82.77       82.45       82.11       81.74       81.38       81.02    
        80.67       80.33       79.98       79.65       79.32       79.01       78.70       78.39       78.09       77.80    
        77.50       77.21       76.92       76.62       76.31       76.00       75.70       75.39       75.08       74.79    
        74.49       74.20       73.92       73.63       73.32       73.00       72.73       72.55     -1000.0     -1000.0    
  10  -1000.0     -1000.0     -1000.0     -1000.0     -1000.0     -1000.0     -1000.0     -1000.0     -1000.0     -1000.0    
      -1000.0     -1000.0       83.31       83.17       82.93       82.60       82.24       81.87       81.50       81.13    
        80.76       80.40       80.04       79.70       79.36       79.03       78.70       78.39       78.08       77.77    
        77.46       77.16       76.86       76.55       76.25       75.94       75.63       75.32       75.01       74.70    
        74.40       74.09       73.79       73.47       73.15       72.82       72.51       72.23       71.92     -1000.0    
  11  -1000.0     -1000.0     -1000.0     -1000.0     -1000.0     -1000.0     -1000.0     -1000.0     -1000.0     -1000.0    
      -1000.0     -1000.0       83.58       83.41       83.13       82.77       82.39       82.00       81.61       81.22    
        80.84       80.46       80.10       79.74       79.38       79.04       78.70       78.38       78.05       77.74    
        77.42       77.11       76.80       76.49       76.18       75.87       75.56       75.24       74.93       74.62    
        74.30       73.98       73.66       73.33       72.98       72.63       72.27       71.92       71.61     -1000.0    
  12  -1000.0     -1000.0     -1000.0     -1000.0     -1000.0     -1000.0     -1000.0     -1000.0     -1000.0     -1000.0    
      -1000.0     -1000.0       83.97       83.72       83.37       82.96       82.54       82.13       81.72       81.31    
        80.91       80.52       80.14       79.76       79.40       79.04       78.70       78.36       78.02       77.70    
        77.38       77.06       76.74       76.43       76.11       75.80       75.48       75.17       74.85       74.53    
        74.20       73.87       73.54       73.19       72.82       72.44       72.03       71.56       70.98       70.00    
  13  -1000.0     -1000.0     -1000.0     -1000.0     -1000.0       87.40       87.26       87.03       86.72       86.34    
        85.87       85.30       84.56       84.07       83.61       83.15       82.69       82.25       81.82       81.39    
        80.98       80.57       80.17       79.78       79.40       79.04       78.68       78.33       77.99       77.65    
        77.32       77.00       76.68       76.36       76.05       75.73       75.41       75.09       74.77       74.45    
        74.11       73.77       73.42       73.06       72.68       72.27       71.83       71.33       70.73       70.00    
  14  -1000.0     -1000.0     -1000.0       87.78       87.68       87.50       87.30       87.05       86.75       86.37    
        85.93       85.41       84.84       84.32       83.83       83.32       82.83       82.36       81.91       81.46    
        81.03       80.60       80.19       79.79       79.40       79.02       78.65       78.29       77.94       77.60    
        77.27       76.94       76.62       76.30       75.98       75.66       75.34       75.02       74.70       74.37    
        74.03       73.68       73.32       72.95       72.56       72.14       71.68       71.18       70.62       70.00    
  15  -1000.0     -1000.0       87.91       87.83       87.72       87.56       87.35       87.10       86.79       86.43    
        86.01       85.53       85.02       84.51       83.99       83.46       82.95       82.46       81.98       81.52    
        81.07       80.63       80.20       79.78       79.38       78.99       78.61       78.24       77.89       77.54    
        77.20       76.87       76.55       76.23       75.91       75.59       75.27       74.95       74.62       74.29    
        73.95       73.60       73.24       72.86       72.46       72.03       71.58       71.09       70.56       70.00    
  16  -1000.0     -1000.0       87.94       87.88       87.77       87.61       87.40       87.15       86.85       86.49    
        86.09       85.64       85.16       84.65       84.13       83.58       83.05       82.54       82.04       81.56    
        81.09       80.63       80.19       79.76       79.34       78.94       78.55       78.18       77.82       77.47    
        77.13       76.80       76.47       76.15       75.83       75.52       75.20       74.88       74.55       74.22    
        73.88       73.53       73.17       72.79       72.38       71.96       71.51       71.03       70.52       70.00    
  17  -1000.0     -1000.0       87.99       87.93       87.82       87.66       87.45       87.20       86.90       86.56    
        86.17       85.73       85.26       84.76       84.23       83.67       83.13       82.60       82.09       81.59    
        81.10       80.62       80.16       79.72       79.29       78.88       78.49       78.11       77.74       77.39    
        77.05       76.72       76.39       76.07       75.76       75.44       75.13       74.81       74.49       74.16    
        73.83       73.48       73.11       72.73       72.33       71.91       71.46       70.99       70.50       70.00    
  18  -1000.0     -1000.0       88.05       87.98       87.87       87.71       87.51       87.26       86.96       86.62    
        86.24       85.81       85.35       84.85       84.32       83.75       83.19       82.65       82.12       81.60    
        81.09       80.60       80.12       79.66       79.22       78.80       78.40       78.01       77.65       77.29    
        76.95       76.62       76.30       75.99       75.68       75.37       75.06       74.75       74.43       74.11    
        73.78       73.43       73.07       72.69       72.30       71.88       71.43       70.97       70.49       70.00    
  19  -1000.0       88.20       88.13       88.04       87.92       87.76       87.56       87.31       87.02       86.68    
        86.31       85.88       85.42       84.92       84.39       83.81       83.24       82.68       82.13       81.59    
        81.06       80.55       80.06       79.58       79.13       78.70       78.29       77.90       77.54       77.18    
        76.85       76.52       76.21       75.90       75.60       75.30       74.99       74.69       74.38       74.07    
        73.74       73.40       73.05       72.67       72.28       71.86       71.43       70.97       70.49       70.00    
  20  -1000.0       88.23       88.18       88.09       87.97       87.81       87.60       87.36       87.07       86.74    
        86.36       85.95       85.49       84.98       84.44       83.85       83.27       82.70       82.13       81.57    
        81.02       80.49       79.97       79.48       79.01       78.57       78.16       77.77       77.41       77.06    
        76.73       76.41       76.11       75.81       75.51       75.22       74.93       74.64       74.34       74.03    
        73.71       73.38       73.04       72.67       72.28       71.87       71.44       70.97       70.49       70.00    
  21  -1000.0       88.26       88.21       88.13       88.01       87.85       87.65       87.41       87.12       86.79    
        86.42       86.00       85.54       85.04       84.49       83.89       83.29       82.70       82.11       81.53    
        80.96       80.40       79.86       79.35       78.87       78.42       78.00       77.62       77.26       76.92    
        76.59       76.29       75.99       75.70       75.42       75.14       74.86       74.58       74.30       74.00    
        73.70       73.38       73.05       72.69       72.31       71.90       71.47       71.00       70.51       70.00    
  22  -1000.0       88.29       88.24       88.16       88.05       87.89       87.69       87.45       87.16       86.84    
        86.47       86.05       85.59       85.08       84.53       83.92       83.31       82.70       82.08       81.47    
        80.87       80.29       79.72       79.19       78.69       78.23       77.81       77.43       77.08       76.75    
        76.44       76.15       75.87       75.60       75.33       75.07       74.80       74.54       74.26       73.99    
        73.70       73.39       73.07       72.73       72.36       71.96       71.52       71.05       70.54       70.00    
  23  -1000.0       88.31       88.27       88.19       88.08       87.92       87.72       87.49       87.21       86.88    
        86.52       86.10       85.64       85.13       84.57       83.95       83.33       82.69       82.05       81.41    
        80.77       80.15       79.55       78.98       78.46       78.00       77.59       77.22       76.88       76.57    
        76.28       76.00       75.74       75.48       75.23       74.99       74.74       74.49       74.24       73.98    
        73.71       73.42       73.12       72.80       72.44       72.05       71.62       71.13       70.58       70.00    
  24  -1000.0       88.33       88.29       88.21       88.10       87.95       87.75       87.52       87.24       86.92    
        86.56       86.15       85.69       85.18       84.61       83.99       83.34       82.69       82.01       81.33    
        80.65       79.98       79.34       78.73       78.19       77.72       77.32       76.96       76.65       76.36    
        76.09       75.84       75.60       75.36       75.13       74.91       74.68       74.45       74.22       73.98    
        73.73       73.47       73.19       72.89       72.56       72.19       71.76       71.26       70.67       70.00    
  25  -1000.0       88.34       88.30       88.22       88.11       87.97       87.78       87.55       87.28       86.96    
        86.60       86.20       85.74       85.23       84.66       84.03       83.38       82.69       81.97       81.24    
        80.51       79.79       79.09       78.44       77.86       77.40       77.01       76.68       76.40       76.13    
        75.89       75.66       75.45       75.23       75.03       74.82       74.62       74.41       74.20       73.99    
        73.77       73.53       73.28       73.02       72.72       72.38       71.97       71.47       70.82       70.00    
  26  -1000.0       88.34       88.30       88.23       88.12       87.98       87.80       87.57       87.31       87.00    
        86.65       86.24       85.79       85.29       84.73       84.09       83.44       82.71       81.94       81.16    
        80.38       79.60       78.83       78.10       77.46       77.02       76.68       76.40       76.14       75.91    
        75.69       75.49       75.30       75.11       74.92       74.74       74.56       74.38       74.19       74.00    
        73.81       73.61       73.40       73.17       72.91       72.63       72.28       71.83       71.14       70.00    
  27  -1000.0     -1000.0       88.28       88.22       88.13       87.99       87.81       87.59       87.33       87.03    
        86.69       86.29       85.85       85.36       84.81       84.20       83.57       82.91       82.22       81.52    
        80.81       80.11       79.41       78.75       78.16       77.67       77.26       76.90       76.59       76.31    
        76.05       75.81       75.58       75.35       75.14       74.92       74.71       74.49       74.27       74.05    
        73.82       73.58       73.32       73.05       72.74       72.40       71.99       71.48       70.83       70.00    
  28  -1000.0     -1000.0       88.27       88.22       88.13       87.99       87.82       87.61       87.36       87.06    
        86.73       86.34       85.92       85.44       84.91       84.33       83.74       83.13       82.52       81.90    
        81.27       80.63       79.99       79.36       78.78       78.26       77.80       77.40       77.04       76.71    
        76.41       76.13       75.86       75.60       75.35       75.10       74.86       74.61       74.36       74.10    
        73.84       73.56       73.27       72.95       72.61       72.22       71.79       71.27       70.68       70.00    
  29  -1000.0     -1000.0       88.26       88.21       88.12       87.99       87.82       87.62       87.37       87.09    
        86.76       86.39       85.98       85.52       85.01       84.46       83.91       83.36       82.81       82.27    
        81.73       81.16       80.56       79.95       79.36       78.81       78.32       77.88       77.47       77.10    
        76.76       76.43       76.13       75.84       75.56       75.28       75.00       74.73       74.45       74.16    
        73.87       73.56       73.23       72.89       72.51       72.11       71.65       71.15       70.60       70.00    
  30  -1000.0     -1000.0       88.25       88.20       88.11       87.97       87.81       87.62       87.39       87.11    
        86.80       86.44       86.04       85.59       85.11       84.58       84.07       83.58       83.10       82.65    
        82.21       81.72       81.17       80.55       79.92       79.34       78.80       78.31       77.87       77.45    
        77.08       76.72       76.39       76.07       75.76       75.45       75.15       74.85       74.54       74.23    
        73.91       73.57       73.22       72.85       72.45       72.03       71.57       71.08       70.55       70.00    
  31  -1000.0     -1000.0       88.25       88.20       88.10       87.94       87.79       87.61       87.39       87.13    
        86.83       86.48       86.09       85.66       85.19       84.69       84.22       83.77       83.36       83.01    
        82.74       82.34       81.83       81.18       80.46       79.83       79.24       78.70       78.22       77.77    
        77.37       76.98       76.62       76.28       75.95       75.62       75.30       74.97       74.64       74.31    
        73.96       73.60       73.22       72.83       72.42       71.98       71.52       71.03       70.52       70.00    
  32  -1000.0     -1000.0     -1000.0     -1000.0     -1000.0       87.84       87.75       87.60       87.40       87.15    
        86.85       86.51       86.13       85.71       85.26       84.78       84.33       83.92       83.56       83.28    
        83.10       82.77       82.31       81.72       81.03       80.26       79.61       79.04       78.52       78.06    
        77.63       77.22       76.84       76.48       76.13       75.79       75.44       75.10       74.75       74.39    
        74.02       73.64       73.24       72.83       72.40       71.95       71.49       71.00       70.51       70.00    
  33  -1000.0     -1000.0     -1000.0     -1000.0     -1000.0       87.79       87.72       87.59       87.40       87.16    
        86.88       86.54       86.16       85.75       85.30       84.83       84.40       84.01       83.69       83.45    
        83.31       83.02       82.60       82.05       81.38       80.58       79.90       79.31       78.78       78.30    
        77.85       77.44       77.05       76.67       76.30       75.95       75.59       75.23       74.86       74.49    
        74.10       73.69       73.28       72.85       72.40       71.94       71.47       70.99       70.50       70.00    
  34  -1000.0     -1000.0     -1000.0     -1000.0     -1000.0       87.77       87.71       87.59       87.41       87.18    
        86.90       86.57       86.18       85.76       85.31       84.85       84.42       84.05       83.74       83.50    
        83.38       83.11       82.71       82.19       81.55       80.77       80.10       79.51       78.98       78.50    
        78.05       77.63       77.23       76.84       76.47       76.10       75.73       75.36       74.98       74.59    
        74.18       73.76       73.32       72.87       72.41       71.94       71.46       70.98       70.49       70.00    
  35  -1000.0     -1000.0     -1000.0     -1000.0     -1000.0       87.76       87.71       87.60       87.43       87.21    
        86.93       86.59       86.19       85.76       85.29       84.82       84.39       84.02       83.70       83.45    
        83.30       83.01       82.63       82.14       81.55       80.84       80.21       79.65       79.14       78.66    
        78.22       77.80       77.40       77.01       76.63       76.25       75.88       75.50       75.11       74.71    
        74.28       73.84       73.38       72.91       72.43       71.94       71.46       70.97       70.49       70.00    
  36  -1000.0     -1000.0     -1000.0     -1000.0     -1000.0       87.77       87.72       87.62       87.46       87.25    
        86.97       86.62       86.20       85.73       85.24       84.74       84.31       83.93       83.60       83.31    
        83.04       82.72       82.34       81.89       81.37       80.80       80.25       79.74       79.25       78.79    
        78.36       77.94       77.54       77.16       76.78       76.41       76.03       75.65       75.26       74.84    
        74.40       73.93       73.44       72.95       72.44       71.94       71.45       70.96       70.48       70.00    
  37  -1000.0     -1000.0     -1000.0     -1000.0     -1000.0       87.78       87.73       87.64       87.50       87.30    
        87.03       86.67       86.21       85.69       85.12       84.60       84.16       83.78       83.45       83.14    
        82.83       82.50       82.12       81.70       81.24       80.75       80.26       79.79       79.33       78.89    
        78.47       78.07       77.68       77.30       76.92       76.56       76.19       75.81       75.42       75.00    
        74.54       74.04       73.51       72.98       72.46       71.94       71.42       70.94       70.46       70.00    
  38  -1000.0     -1000.0     -1000.0     -1000.0     -1000.0       87.79       87.75       87.67       87.55       87.38    
        87.14       86.79       86.22       85.63       84.92       84.38       83.96       83.60       83.27       82.96    
        82.64       82.31       81.95       81.55       81.13       80.69       80.25       79.82       79.39       78.98    
        78.57       78.18       77.80       77.43       77.06       76.70       76.34       75.98       75.61       75.20    
        74.73       74.15       73.58       73.02       72.47       71.92       71.38       70.89       70.44       70.00    
  39  -1000.0     -1000.0     -1000.0     -1000.0     -1000.0     -1000.0       87.76       87.71       87.62       87.48    
        87.30       87.07     -1000.0     -1000.0       84.50       84.03       83.69       83.38       83.08       82.78    
        82.47       82.15       81.80       81.43       81.04       80.64       80.23       79.83       79.44       79.04    
        78.66       78.28       77.91       77.55       77.19       76.85       76.50       76.17       75.83       75.46    
        75.01       74.27       73.63       73.04       72.46       71.88       71.27       70.81       70.39       70.00    
  40  -1000.0     -1000.0     -1000.0     -1000.0     -1000.0     -1000.0       87.77       87.74       87.67       87.58    
        87.46     -1000.0     -1000.0     -1000.0     -1000.0       83.55       83.38       83.15       82.89       82.62    
        82.32       82.00       81.67       81.32       80.96       80.59       80.21       79.84       79.47       79.11    
        78.74       78.38       78.02       77.66       77.32       76.98       76.66       76.35       76.06       75.80    
        75.59     -1000.0     -1000.0     -1000.0     -1000.0     -1000.0       70.99       70.71       70.31       70.00    
  41  -1000.0     -1000.0     -1000.0     -1000.0     -1000.0     -1000.0     -1000.0       87.75       87.71       87.67    
      -1000.0     -1000.0     -1000.0     -1000.0     -1000.0       83.23       83.12       82.95       82.72       82.47    
        82.19       81.88       81.55       81.22       80.88       80.53       80.19       79.85       79.50       79.16    
        78.82       78.47       78.11       77.76       77.42       77.10       76.80       76.52       76.28       76.08    
        75.95     -1000.0     -1000.0     -1000.0     -1000.0     -1000.0     -1000.0     -1000.0       70.16       70.00    
  42  -1000.0     -1000.0     -1000.0     -1000.0     -1000.0     -1000.0     -1000.0     -1000.0     -1000.0     -1000.0    
      -1000.0     -1000.0     -1000.0     -1000.0     -1000.0       83.03       82.94       82.79       82.59       82.35    
        82.07       81.77       81.45       81.13       80.80       80.48       80.16       79.85       79.53       79.22    
        78.90       78.56       78.20       77.85       77.51       77.20       76.91       76.66       76.44       76.28    
        76.19     -1000.0     -1000.0     -1000.0     -1000.0     -1000.0     -1000.0     -1000.0     -1000.0     -1000.0    
  43  -1000.0     -1000.0     -1000.0     -1000.0     -1000.0     -1000.0     -1000.0     -1000.0     -1000.0     -1000.0    
      -1000.0     -1000.0     -1000.0     -1000.0     -1000.0       82.92       82.81       82.67       82.49       82.26    
        81.99       81.68       81.35       81.03       80.72       80.42       80.13       79.85       79.57       79.28    
        78.99       78.66       78.29       77.92       77.58       77.27       76.99       76.75       76.55       76.41    
        76.33     -1000.0     -1000.0     -1000.0     -1000.0     -1000.0     -1000.0     -1000.0     -1000.0     -1000.0    
  44  -1000.0     -1000.0     -1000.0     -1000.0     -1000.0     -1000.0     -1000.0     -1000.0     -1000.0     -1000.0    
      -1000.0     -1000.0     -1000.0     -1000.0     -1000.0     -1000.0       82.71       82.61       82.44       82.21    
        81.94       81.62       81.23       80.93       80.62       80.35       80.09       79.84       79.60       79.36    
        79.11       78.82       78.36       77.97       77.62       77.31       77.03       76.80       76.61       76.47    
        76.40     -1000.0     -1000.0     -1000.0     -1000.0     -1000.0     -1000.0     -1000.0     -1000.0     -1000.0    
  45  -1000.0     -1000.0     -1000.0     -1000.0     -1000.0     -1000.0     -1000.0     -1000.0     -1000.0     -1000.0    
      -1000.0     -1000.0     -1000.0     -1000.0     -1000.0     -1000.0     -1000.0     -1000.0     -1000.0     -1000.0    
      -1000.0     -1000.0       81.02       80.82       80.50       80.25       80.04       79.83       79.64       79.45    
        79.27       79.13     -1000.0     -1000.0     -1000.0     -1000.0     -1000.0     -1000.0     -1000.0     -1000.0    
      -1000.0     -1000.0     -1000.0     -1000.0     -1000.0     -1000.0     -1000.0     -1000.0     -1000.0     -1000.0    
  46  -1000.0     -1000.0     -1000.0     -1000.0     -1000.0     -1000.0     -1000.0     -1000.0     -1000.0     -1000.0    
      -1000.0     -1000.0     -1000.0     -1000.0     -1000.0     -1000.0     -1000.0     -1000.0     -1000.0     -1000.0    
      -1000.0     -1000.0     -1000.0     -1000.0       80.32       80.13       79.97       79.82       79.67       79.52    
        79.40       79.31     -1000.0     -1000.0     -1000.0     -1000.0     -1000.0     -1000.0     -1000.0     -1000.0    
      -1000.0     -1000.0     -1000.0     -1000.0     -1000.0     -1000.0     -1000.0     -1000.0     -1000.0     -1000.0    
  47  -1000.0     -1000.0     -1000.0     -1000.0     -1000.0     -1000.0     -1000.0     -1000.0     -1000.0     -1000.0    
      -1000.0     -1000.0     -1000.0     -1000.0     -1000.0     -1000.0     -1000.0     -1000.0     -1000.0     -1000.0    
      -1000.0     -1000.0     -1000.0     -1000.0     -1000.0       79.97       79.90       79.80       79.69       79.58    
        79.48       79.39     -1000.0     -1000.0     -1000.0     -1000.0     -1000.0     -1000.0     -1000.0     -1000.0    
      -1000.0     -1000.0     -1000.0     -1000.0     -1000.0     -1000.0     -1000.0     -1000.0     -1000.0     -1000.0    
  48  -1000.0     -1000.0     -1000.0     -1000.0     -1000.0     -1000.0     -1000.0     -1000.0     -1000.0     -1000.0    
      -1000.0     -1000.0     -1000.0     -1000.0     -1000.0     -1000.0     -1000.0     -1000.0     -1000.0     -1000.0    
      -1000.0     -1000.0     -1000.0     -1000.0     -1000.0       79.90       79.85       79.78       79.70       79.63    
        79.55     -1000.0     -1000.0     -1000.0     -1000.0     -1000.0     -1000.0     -1000.0     -1000.0     -1000.0    
      -1000.0     -1000.0     -1000.0     -1000.0     -1000.0     -1000.0     -1000.0     -1000.0     -1000.0     -1000.0    
  49  -1000.0     -1000.0     -1000.0     -1000.0     -1000.0     -1000.0     -1000.0     -1000.0     -1000.0     -1000.0    
      -1000.0     -1000.0     -1000.0     -1000.0     -1000.0     -1000.0     -1000.0     -1000.0     -1000.0     -1000.0    
      -1000.0     -1000.0     -1000.0     -1000.0     -1000.0       79.86       79.83       79.78       79.72       79.67    
      -1000.0     -1000.0     -1000.0     -1000.0     -1000.0     -1000.0     -1000.0     -1000.0     -1000.0     -1000.0    
      -1000.0     -1000.0     -1000.0     -1000.0     -1000.0     -1000.0     -1000.0     -1000.0     -1000.0     -1000.0    
  50  -1000.0     -1000.0     -1000.0     -1000.0     -1000.0     -1000.0     -1000.0     -1000.0     -1000.0     -1000.0    
      -1000.0     -1000.0     -1000.0     -1000.0     -1000.0     -1000.0     -1000.0     -1000.0     -1000.0     -1000.0    
      -1000.0     -1000.0     -1000.0     -1000.0     -1000.0     -1000.0     -1000.0     -1000.0     -1000.0     -1000.0    
      -1000.0     -1000.0     -1000.0     -1000.0     -1000.0     -1000.0     -1000.0     -1000.0     -1000.0     -1000.0    
      -1000.0     -1000.0     -1000.0     -1000.0     -1000.0     -1000.0     -1000.0     -1000.0     -1000.0     -1000.0    
1
              HEAD IN LAYER   2 AT END OF TIME STEP   1 IN STRESS PERIOD    1
  ---------------------------------------------------------------------------

            1           2           3           4           5           6           7           8           9          10
           11          12          13          14          15          16          17          18          19          20
           21          22          23          24          25          26          27          28          29          30
           31          32          33          34          35          36          37          38          39          40
           41          42          43          44          45          46          47          48          49          50
 ........................................................................................................................
   1  -1000.0     -1000.0     -1000.0     -1000.0     -1000.0     -1000.0     -1000.0     -1000.0     -1000.0     -1000.0    
      -1000.0     -1000.0     -1000.0     -1000.0     -1000.0     -1000.0     -1000.0     -1000.0     -1000.0     -1000.0    
      -1000.0     -1000.0     -1000.0     -1000.0     -1000.0     -1000.0     -1000.0     -1000.0     -1000.0     -1000.0    
      -1000.0     -1000.0     -1000.0     -1000.0     -1000.0     -1000.0     -1000.0     -1000.0     -1000.0     -1000.0    
      -1000.0     -1000.0     -1000.0     -1000.0     -1000.0     -1000.0     -1000.0     -1000.0     -1000.0     -1000.0    
   2  -1000.0     -1000.0     -1000.0     -1000.0     -1000.0     -1000.0     -1000.0     -1000.0     -1000.0     -1000.0    
      -1000.0     -1000.0     -1000.0     -1000.0     -1000.0     -1000.0     -1000.0     -1000.0     -1000.0     -1000.0    
      -1000.0     -1000.0     -1000.0       78.95       78.86       78.71       78.53       78.33       78.13       77.94    
        77.74       77.57       77.42       77.32     -1000.0     -1000.0     -1000.0     -1000.0     -1000.0     -1000.0    
      -1000.0     -1000.0     -1000.0     -1000.0     -1000.0     -1000.0     -1000.0     -1000.0     -1000.0     -1000.0    
   3  -1000.0     -1000.0     -1000.0     -1000.0     -1000.0     -1000.0     -1000.0     -1000.0     -1000.0     -1000.0    
      -1000.0     -1000.0     -1000.0     -1000.0     -1000.0     -1000.0     -1000.0     -1000.0     -1000.0     -1000.0    
      -1000.0     -1000.0       79.18       79.05       78.91       78.73       78.54       78.34       78.13       77.93    
        77.73       77.54       77.37       77.22       77.09     -1000.0     -1000.0     -1000.0     -1000.0     -1000.0    
      -1000.0     -1000.0     -1000.0     -1000.0     -1000.0     -1000.0     -1000.0     -1000.0     -1000.0     -1000.0    
   4  -1000.0     -1000.0     -1000.0     -1000.0     -1000.0     -1000.0     -1000.0     -1000.0     -1000.0     -1000.0    
      -1000.0     -1000.0     -1000.0     -1000.0     -1000.0     -1000.0     -1000.0     -1000.0     -1000.0     -1000.0    
      -1000.0     -1000.0       79.31       79.17       78.98       78.78       78.57       78.35       78.13       77.91    
        77.70       77.49       77.29       77.11       76.96     -1000.0     -1000.0     -1000.0     -1000.0     -1000.0    
      -1000.0     -1000.0     -1000.0     -1000.0     -1000.0     -1000.0     -1000.0     -1000.0     -1000.0     -1000.0    
   5  -1000.0     -1000.0     -1000.0     -1000.0     -1000.0     -1000.0     -1000.0     -1000.0     -1000.0     -1000.0    
      -1000.0     -1000.0     -1000.0     -1000.0     -1000.0     -1000.0     -1000.0       80.99       80.86       80.63    
        80.35       80.01       79.59       79.32       79.07       78.84       78.60       78.36       78.13       77.89    
        77.66       77.43       77.20       76.96       76.69       76.27       75.91       75.58       75.28       75.00    
        74.75       74.53       74.35       74.23     -1000.0     -1000.0     -1000.0     -1000.0     -1000.0     -1000.0    
   6  -1000.0     -1000.0     -1000.0     -1000.0     -1000.0     -1000.0     -1000.0     -1000.0     -1000.0     -1000.0    
      -1000.0     -1000.0     -1000.0     -1000.0     -1000.0     -1000.0     -1000.0       81.12       80.95       80.70    
        80.40       80.08       79.73       79.43       79.15       78.89       78.63       78.38       78.12       77.87    
        77.62       77.37       77.11       76.85       76.55       76.21       75.88       75.56       75.26       74.98    
        74.72       74.48       74.28       74.11       73.97     -1000.0     -1000.0     -1000.0     -1000.0     -1000.0    
   7  -1000.0     -1000.0     -1000.0     -1000.0     -1000.0     -1000.0     -1000.0     -1000.0     -1000.0     -1000.0    
      -1000.0     -1000.0     -1000.0       82.74       82.57       82.27       81.90       81.43       81.11       80.80    
        80.49       80.16       79.83       79.52       79.22       78.94       78.66       78.39       78.12       77.85    
        77.58       77.31       77.04       76.76       76.46       76.14       75.82       75.51       75.21       74.93    
        74.66       74.41       74.18       73.98       73.82     -1000.0     -1000.0     -1000.0     -1000.0     -1000.0    
   8  -1000.0     -1000.0     -1000.0     -1000.0     -1000.0     -1000.0     -1000.0     -1000.0     -1000.0     -1000.0    
      -1000.0     -1000.0       83.01       82.86       82.65       82.34       81.99       81.60       81.25       80.91    
        80.58       80.24       79.91       79.59       79.28       78.98       78.68       78.39       78.11       77.83    
        77.54       77.26       76.98       76.68       76.38       76.07       75.76       75.45       75.15       74.86    
        74.58       74.31       74.05       73.79       73.52       73.12       72.85       72.70     -1000.0     -1000.0    
   9  -1000.0     -1000.0     -1000.0     -1000.0     -1000.0     -1000.0     -1000.0     -1000.0     -1000.0     -1000.0    
      -1000.0     -1000.0       83.12       82.99       82.77       82.45       82.11       81.74       81.38       81.02    
        80.67       80.33       79.98       79.65       79.32       79.01       78.70       78.39       78.09       77.80    
        77.50       77.21       76.92       76.62       76.31       76.00       75.70       75.39       75.08       74.79    
        74.49       74.20       73.92       73.63       73.32       73.00       72.73       72.55     -1000.0     -1000.0    
  10  -1000.0     -1000.0     -1000.0     -1000.0     -1000.0     -1000.0     -1000.0     -1000.0     -1000.0     -1000.0    
      -1000.0     -1000.0       83.31       83.17       82.93       82.60       82.24       81.87       81.50       81.13    
        80.76       80.40       80.04       79.70       79.36       79.03       78.70       78.39       78.08       77.77    
        77.46       77.16       76.86       76.55       76.25       75.94       75.63       75.32       75.01       74.70    
        74.40       74.09       73.79       73.47       73.15       72.82       72.51       72.23       71.92     -1000.0    
  11  -1000.0     -1000.0     -1000.0     -1000.0     -1000.0     -1000.0     -1000.0     -1000.0     -1000.0     -1000.0    
      -1000.0     -1000.0       83.58       83.41       83.13       82.77       82.39       82.00       81.61       81.22    
        80.84       80.46       80.10       79.74       79.38       79.04       78.70       78.38       78.05       77.74    
        77.42       77.11       76.80       76.49       76.18       75.87       75.56       75.24       74.93       74.62    
        74.30       73.98       73.66       73.33       72.98       72.63       72.27       71.92       71.61     -1000.0    
  12  -1000.0     -1000.0     -1000.0     -1000.0     -1000.0     -1000.0     -1000.0     -1000.0     -1000.0     -1000.0    
      -1000.0     -1000.0       83.97       83.72       83.37       82.96       82.54       82.13       81.72       81.31    
        80.91       80.52       80.14       79.76       79.40       79.04       78.70       78.36       78.02       77.70    
        77.38       77.06       76.74       76.43       76.11       75.80       75.48       75.17       74.85       74.53    
        74.20       73.87       73.54       73.19       72.82       72.44       72.03       71.56       70.98       70.00    
  13  -1000.0     -1000.0     -1000.0     -1000.0     -1000.0       87.40       87.26       87.03       86.72       86.34    
        85.87       85.30       84.56       84.07       83.61       83.15       82.69       82.25       81.82       81.39    
        80.98       80.57       80.17       79.78       79.40       79.04       78.68       78.33       77.99       77.65    
        77.32       77.00       76.68       76.36       76.05       75.73       75.41       75.09       74.77       74.45    
        74.11       73.77       73.42       73.06       72.68       72.27       71.83       71.33       70.73       70.00    
  14  -1000.0     -1000.0     -1000.0       87.78       87.68       87.50       87.30       87.05       86.75       86.37    
        85.93       85.41       84.84       84.32       83.83       83.32       82.83       82.36       81.91       81.46    
        81.03       80.60       80.19       79.79       79.40       79.02       78.65       78.29       77.94       77.60    
        77.27       76.94       76.62       76.30       75.98       75.66       75.34       75.02       74.70       74.37    
        74.03       73.68       73.32       72.95       72.56       72.14       71.68       71.18       70.62       70.00    
  15  -1000.0     -1000.0       87.91       87.83       87.72       87.56       87.35       87.10       86.79       86.43    
        86.01       85.53       85.02       84.51       83.99       83.46       82.95       82.46       81.98       81.52    
        81.07       80.63       80.20       79.78       79.38       78.99       78.61       78.24       77.89       77.54    
        77.20       76.87       76.55       76.23       75.91       75.59       75.27       74.95       74.62       74.29    
        73.95       73.60       73.24       72.86       72.46       72.03       71.58       71.09       70.56       70.00    
  16  -1000.0     -1000.0       87.94       87.88       87.77       87.61       87.40       87.15       86.85       86.49    
        86.09       85.64       85.16       84.65       84.13       83.58       83.05       82.54       82.04       81.56    
        81.09       80.63       80.19       79.76       79.34       78.94       78.55       78.18       77.82       77.47    
        77.13       76.80       76.47       76.15       75.83       75.52       75.20       74.88       74.55       74.22    
        73.88       73.53       73.17       72.79       72.38       71.96       71.51       71.03       70.52       70.00    
  17  -1000.0     -1000.0       87.99       87.93       87.82       87.66       87.45       87.20       86.90       86.56    
        86.17       85.73       85.26       84.76       84.23       83.67       83.13       82.60       82.09       81.59    
        81.10       80.62       80.16       79.72       79.29       78.88       78.49       78.11       77.74       77.39    
        77.05       76.72       76.39       76.07       75.76       75.44       75.13       74.81       74.49       74.16    
        73.83       73.48       73.11       72.73       72.33       71.91       71.46       70.99       70.50       70.00    
  18  -1000.0     -1000.0       88.05       87.98       87.87       87.71       87.51       87.26       86.96       86.62    
        86.24       85.81       85.35       84.85       84.32       83.75       83.19       82.65       82.12       81.60    
        81.09       80.60       80.12       79.66       79.22       78.80       78.40       78.01       77.65       77.29    
        76.95       76.62       76.30       75.99       75.68       75.37       75.06       74.75       74.43       74.11    
        73.78       73.43       73.07       72.69       72.30       71.88       71.43       70.97       70.49       70.00    
  19  -1000.0       88.20       88.13       88.04       87.92       87.76       87.56       87.31       87.02       86.68    
        86.31       85.88       85.42       84.92       84.38       83.81       83.24       82.68       82.13       81.59    
        81.06       80.55       80.06       79.58       79.13       78.70       78.29       77.90       77.54       77.18    
        76.85       76.52       76.21       75.90       75.60       75.30       74.99       74.69       74.38       74.07    
        73.74       73.40       73.05       72.67       72.28       71.86       71.43       70.97       70.49       70.00    
  20  -1000.0       88.23       88.18       88.09       87.97       87.81       87.60       87.36       87.07       86.74    
        86.36       85.95       85.49       84.98       84.44       83.85       83.27       82.70       82.13       81.57    
        81.02       80.49       79.97       79.48       79.01       78.57       78.16       77.77       77.41       77.06    
        76.73       76.41       76.11       75.81       75.51       75.22       74.93       74.64       74.34       74.03    
        73.71       73.38       73.04       72.67       72.28       71.87       71.44       70.97       70.49       70.00    
  21  -1000.0       88.26       88.21       88.13       88.01       87.85       87.65       87.41       87.12       86.79    
        86.42       86.00       85.54       85.04       84.49       83.89       83.29       82.70       82.11       81.53    
        80.96       80.40       79.86       79.35       78.87       78.42       78.00       77.62       77.26       76.92    
        76.59       76.29       75.99       75.70       75.42       75.14       74.86       74.58       74.30       74.00    
        73.70       73.38       73.05       72.69       72.31       71.90       71.47       71.00       70.51       70.00    
  22  -1000.0       88.28       88.24       88.16       88.05       87.89       87.69       87.45       87.16       86.84    
        86.47       86.05       85.59       85.08       84.53       83.92       83.31       82.70       82.08       81.47    
        80.87       80.29       79.72       79.19       78.69       78.23       77.81       77.43       77.08       76.75    
        76.44       76.15       75.87       75.60       75.33       75.07       74.80       74.54       74.26       73.99    
        73.70       73.39       73.07       72.73       72.36       71.96       71.52       71.05       70.54       70.00    
  23  -1000.0       88.31       88.27       88.19       88.08       87.92       87.72       87.49       87.21       86.88    
        86.52       86.10       85.64       85.13       84.57       83.95       83.33       82.69       82.05       81.41    
        80.77       80.15       79.55       78.98       78.46       78.00       77.59       77.22       76.88       76.57    
        76.28       76.00       75.74       75.48       75.23       74.99       74.74       74.49       74.24       73.98    
        73.71       73.42       73.12       72.80       72.44       72.05       71.62       71.13       70.58       70.00    
  24  -1000.0       88.33       88.29       88.21       88.10       87.95       87.75       87.52       87.24       86.92    
        86.56       86.15       85.69       85.18       84.61       83.99       83.34       82.69       82.01       81.33    
        80.65       79.98       79.34       78.73       78.19       77.72       77.32       76.96       76.65       76.36    
        76.09       75.84       75.60       75.36       75.13       74.91       74.68       74.45       74.22       73.98    
        73.73       73.47       73.19       72.89       72.56       72.19       71.76       71.26       70.67       70.00    
  25  -1000.0       88.34       88.30       88.22       88.11       87.97       87.78       87.55       87.28       86.96    
        86.60       86.20       85.74       85.23       84.66       84.03       83.38       82.69       81.97       81.24    
        80.51       79.79       79.09       78.44       77.86       77.40       77.01       76.68       76.40       76.13    
        75.89       75.66       75.45       75.23       75.03       74.82       74.62       74.41       74.20       73.99    
        73.77       73.53       73.28       73.02       72.72       72.38       71.97       71.47       70.82       70.00    
  26  -1000.0       88.34       88.30       88.23       88.12       87.98       87.80       87.57       87.31       87.00    
        86.65       86.24       85.79       85.29       84.73       84.09       83.44       82.71       81.94       81.16    
        80.38       79.60       78.83       78.11       77.46       77.03       76.69       76.40       76.14       75.91    
        75.70       75.49       75.30       75.11       74.92       74.74       74.56       74.38       74.19       74.00    
        73.81       73.61       73.40       73.17       72.91       72.63       72.28       71.83       71.14       70.00    
  27  -1000.0     -1000.0       88.28       88.22       88.13       87.99       87.81       87.59       87.33       87.03    
        86.69       86.29       85.85       85.36       84.81       84.20       83.57       82.91       82.22       81.52    
        80.81       80.11       79.41       78.75       78.16       77.67       77.26       76.90       76.59       76.31    
        76.05       75.81       75.58       75.35       75.14       74.92       74.71       74.49       74.27       74.05    
        73.82       73.58       73.32       73.05       72.74       72.40       71.99       71.48       70.83       70.00    
  28  -1000.0     -1000.0       88.27       88.22       88.13       87.99       87.82       87.61       87.36       87.06    
        86.73       86.34       85.92       85.44       84.91       84.33       83.74       83.13       82.52       81.90    
        81.27       80.63       79.99       79.36       78.78       78.26       77.80       77.40       77.04       76.71    
        76.41       76.13       75.86       75.60       75.35       75.10       74.86       74.61       74.36       74.10    
        73.84       73.56       73.27       72.95       72.61       72.22       71.79       71.27       70.68       70.00    
  29  -1000.0     -1000.0       88.26       88.21       88.12       87.99       87.82       87.62       87.37       87.09    
        86.76       86.39       85.98       85.52       85.01       84.46       83.91       83.36       82.81       82.27    
        81.73       81.16       80.56       79.95       79.36       78.81       78.32       77.88       77.47       77.10    
        76.76       76.43       76.13       75.84       75.56       75.28       75.00       74.73       74.45       74.16    
        73.87       73.56       73.23       72.89       72.51       72.11       71.65       71.15       70.60       70.00    
  30  -1000.0     -1000.0       88.25       88.20       88.11       87.97       87.81       87.62       87.39       87.11    
        86.80       86.44       86.04       85.59       85.11       84.58       84.07       83.58       83.10       82.65    
        82.21       81.72       81.17       80.55       79.92       79.34       78.80       78.31       77.87       77.45    
        77.08       76.72       76.39       76.07       75.76       75.45       75.15       74.85       74.54       74.23    
        73.91       73.57       73.22       72.85       72.45       72.03       71.57       71.08       70.55       70.00    
  31  -1000.0     -1000.0       88.25       88.20       88.10       87.94       87.79       87.61       87.39       87.13    
        86.83       86.48       86.09       85.66       85.19       84.69       84.22       83.77       83.36       83.01    
        82.74       82.34       81.83       81.18       80.46       79.83       79.24       78.70       78.22       77.77    
        77.37       76.98       76.62       76.28       75.95       75.62       75.30       74.97       74.64       74.31    
        73.96       73.60       73.22       72.83       72.42       71.98       71.52       71.03       70.52       70.00    
  32  -1000.0     -1000.0     -1000.0     -1000.0     -1000.0       87.84       87.75       87.60       87.40       87.15    
        86.85       86.51       86.13       85.71       85.26       84.78       84.33       83.92       83.56       83.28    
        83.10       82.77       82.31       81.72       81.03       80.26       79.61       79.04       78.52       78.06    
        77.63       77.22       76.84       76.48       76.13       75.79       75.44       75.10       74.75       74.39    
        74.02       73.64       73.24       72.83       72.40       71.95       71.49       71.00       70.51       70.00    
  33  -1000.0     -1000.0     -1000.0     -1000.0     -1000.0       87.79       87.72       87.59       87.40       87.16    
        86.88       86.54       86.16       85.74       85.30       84.83       84.40       84.01       83.69       83.45    
        83.31       83.02       82.60       82.05       81.38       80.58       79.90       79.31       78.78       78.30    
        77.85       77.44       77.05       76.67       76.30       75.95       75.59       75.23       74.86       74.49    
        74.10       73.69       73.28       72.85       72.40       71.94       71.47       70.99       70.50       70.00    
  34  -1000.0     -1000.0     -1000.0     -1000.0     -1000.0       87.77       87.71       87.59       87.41       87.18    
        86.90       86.57       86.18       85.76       85.31       84.85       84.42       84.05       83.74       83.50    
        83.38       83.11       82.71       82.19       81.55       80.77       80.10       79.51       78.98       78.50    
        78.05       77.63       77.23       76.84       76.47       76.10       75.73       75.36       74.98       74.59    
        74.18       73.76       73.32       72.87       72.41       71.94       71.46       70.98       70.49       70.00    
  35  -1000.0     -1000.0     -1000.0     -1000.0     -1000.0       87.76       87.71       87.60       87.43       87.21    
        86.93       86.59       86.19       85.76       85.29       84.82       84.39       84.02       83.70       83.45    
        83.30       83.01       82.63       82.14       81.55       80.84       80.21       79.65       79.14       78.66    
        78.22       77.80       77.40       77.01       76.63       76.25       75.88       75.50       75.11       74.71    
        74.28       73.84       73.38       72.91       72.43       71.94       71.46       70.97       70.49       70.00    
  36  -1000.0     -1000.0     -1000.0     -1000.0     -1000.0       87.77       87.72       87.62       87.46       87.25    
        86.97       86.62       86.20       85.73       85.24       84.74       84.31       83.93       83.60       83.31    
        83.04       82.72       82.34       81.89       81.37       80.80       80.25       79.74       79.25       78.79    
        78.36       77.94       77.54       77.16       76.78       76.41       76.03       75.65       75.26       74.84    
        74.40       73.93       73.44       72.95       72.44       71.94       71.45       70.96       70.48       70.00    
  37  -1000.0     -1000.0     -1000.0     -1000.0     -1000.0       87.78       87.73       87.64       87.50       87.30    
        87.03       86.67       86.21       85.69       85.12       84.60       84.16       83.78       83.45       83.14    
        82.83       82.50       82.12       81.70       81.24       80.75       80.26       79.79       79.33       78.89    
        78.47       78.07       77.68       77.30       76.92       76.56       76.19       75.81       75.42       75.00    
        74.54       74.04       73.51       72.98       72.46       71.94       71.42       70.94       70.46       70.00    
  38  -1000.0     -1000.0     -1000.0     -1000.0     -1000.0       87.79       87.75       87.67       87.55       87.38    
        87.14       86.79       86.22       85.63       84.92       84.38       83.96       83.60       83.27       82.96    
        82.64       82.31       81.95       81.55       81.13       80.69       80.25       79.82       79.39       78.98    
        78.57       78.18       77.80       77.43       77.06       76.70       76.34       75.98       75.61       75.20    
        74.73       74.15       73.58       73.02       72.47       71.92       71.38       70.89       70.44       70.00    
  39  -1000.0     -1000.0     -1000.0     -1000.0     -1000.0     -1000.0       87.76       87.71       87.62       87.48    
        87.30       87.07     -1000.0     -1000.0       84.50       84.03       83.69       83.38       83.08       82.78    
        82.47       82.15       81.80       81.43       81.04       80.64       80.23       79.83       79.44       79.04    
        78.66       78.28       77.91       77.55       77.19       76.85       76.50       76.17       75.83       75.46    
        75.01       74.27       73.63       73.04       72.46       71.88       71.27       70.81       70.39       70.00    
  40  -1000.0     -1000.0     -1000.0     -1000.0     -1000.0     -1000.0       87.77       87.74       87.67       87.58    
        87.46     -1000.0     -1000.0     -1000.0     -1000.0       83.55       83.38       83.15       82.89       82.62    
        82.32       82.00       81.67       81.32       80.96       80.59       80.21       79.84       79.47       79.11    
        78.74       78.38       78.02       77.66       77.32       76.98       76.66       76.35       76.06       75.80    
        75.59     -1000.0     -1000.0     -1000.0     -1000.0     -1000.0       70.99       70.71       70.31       70.00    
  41  -1000.0     -1000.0     -1000.0     -1000.0     -1000.0     -1000.0     -1000.0       87.75       87.71       87.67    
      -1000.0     -1000.0     -1000.0     -1000.0     -1000.0       83.23       83.12       82.95       82.72       82.47    
        82.19       81.88       81.55       81.22       80.88       80.53       80.19       79.85       79.50       79.16    
        78.82       78.47       78.11       77.76       77.42       77.10       76.80       76.52       76.28       76.08    
        75.95     -1000.0     -1000.0     -1000.0     -1000.0     -1000.0     -1000.0     -1000.0       70.16       70.00    
  42  -1000.0     -1000.0     -1000.0     -1000.0     -1000.0     -1000.0     -1000.0     -1000.0     -1000.0     -1000.0    
      -1000.0     -1000.0     -1000.0     -1000.0     -1000.0       83.03       82.94       82.79       82.59       82.35    
        82.07       81.77       81.45       81.13       80.80       80.48       80.16       79.85       79.53       79.22    
        78.90       78.56       78.20       77.85       77.51       77.20       76.91       76.66       76.44       76.28    
        76.19     -1000.0     -1000.0     -1000.0     -1000.0     -1000.0     -1000.0     -1000.0     -1000.0     -1000.0    
  43  -1000.0     -1000.0     -1000.0     -1000.0     -1000.0     -1000.0     -1000.0     -1000.0     -1000.0     -1000.0    
      -1000.0     -1000.0     -1000.0     -1000.0     -1000.0       82.92       82.81       82.67       82.49       82.26    
        81.99       81.68       81.35       81.03       80.72       80.42       80.13       79.85       79.57       79.28    
        78.99       78.66       78.29       77.92       77.58       77.27       76.99       76.75       76.55       76.41    
        76.33     -1000.0     -1000.0     -1000.0     -1000.0     -1000.0     -1000.0     -1000.0     -1000.0     -1000.0    
  44  -1000.0     -1000.0     -1000.0     -1000.0     -1000.0     -1000.0     -1000.0     -1000.0     -1000.0     -1000.0    
      -1000.0     -1000.0     -1000.0     -1000.0     -1000.0     -1000.0       82.71       82.61       82.44       82.21    
        81.94       81.62       81.23       80.93       80.62       80.35       80.09       79.84       79.60       79.36    
        79.11       78.82       78.36       77.97       77.62       77.31       77.03       76.80       76.61       76.47    
        76.40     -1000.0     -1000.0     -1000.0     -1000.0     -1000.0     -1000.0     -1000.0     -1000.0     -1000.0    
  45  -1000.0     -1000.0     -1000.0     -1000.0     -1000.0     -1000.0     -1000.0     -1000.0     -1000.0     -1000.0    
      -1000.0     -1000.0     -1000.0     -1000.0     -1000.0     -1000.0     -1000.0     -1000.0     -1000.0     -1000.0    
      -1000.0     -1000.0       81.02       80.82       80.50       80.25       80.04       79.83       79.64       79.45    
        79.27       79.13     -1000.0     -1000.0     -1000.0     -1000.0     -1000.0     -1000.0     -1000.0     -1000.0    
      -1000.0     -1000.0     -1000.0     -1000.0     -1000.0     -1000.0     -1000.0     -1000.0     -1000.0     -1000.0    
  46  -1000.0     -1000.0     -1000.0     -1000.0     -1000.0     -1000.0     -1000.0     -1000.0     -1000.0     -1000.0    
      -1000.0     -1000.0     -1000.0     -1000.0     -1000.0     -1000.0     -1000.0     -1000.0     -1000.0     -1000.0    
      -1000.0     -1000.0     -1000.0     -1000.0       80.32       80.13       79.97       79.82       79.67       79.52    
        79.40       79.31     -1000.0     -1000.0     -1000.0     -1000.0     -1000.0     -1000.0     -1000.0     -1000.0    
      -1000.0     -1000.0     -1000.0     -1000.0     -1000.0     -1000.0     -1000.0     -1000.0     -1000.0     -1000.0    
  47  -1000.0     -1000.0     -1000.0     -1000.0     -1000.0     -1000.0     -1000.0     -1000.0     -1000.0     -1000.0    
      -1000.0     -1000.0     -1000.0     -1000.0     -1000.0     -1000.0     -1000.0     -1000.0     -1000.0     -1000.0    
      -1000.0     -1000.0     -1000.0     -1000.0     -1000.0       79.97       79.90       79.80       79.69       79.58    
        79.48       79.39     -1000.0     -1000.0     -1000.0     -1000.0     -1000.0     -1000.0     -1000.0     -1000.0    
      -1000.0     -1000.0     -1000.0     -1000.0     -1000.0     -1000.0     -1000.0     -1000.0     -1000.0     -1000.0    
  48  -1000.0     -1000.0     -1000.0     -1000.0     -1000.0     -1000.0     -1000.0     -1000.0     -1000.0     -1000.0    
      -1000.0     -1000.0     -1000.0     -1000.0     -1000.0     -1000.0     -1000.0     -1000.0     -1000.0     -1000.0    
      -1000.0     -1000.0     -1000.0     -1000.0     -1000.0       79.90       79.85       79.78       79.70       79.63    
        79.55     -1000.0     -1000.0     -1000.0     -1000.0     -1000.0     -1000.0     -1000.0     -1000.0     -1000.0    
      -1000.0     -1000.0     -1000.0     -1000.0     -1000.0     -1000.0     -1000.0     -1000.0     -1000.0     -1000.0    
  49  -1000.0     -1000.0     -1000.0     -1000.0     -1000.0     -1000.0     -1000.0     -1000.0     -1000.0     -1000.0    
      -1000.0     -1000.0     -1000.0     -1000.0     -1000.0     -1000.0     -1000.0     -1000.0     -1000.0     -1000.0    
      -1000.0     -1000.0     -1000.0     -1000.0     -1000.0       79.86       79.83       79.78       79.72       79.67    
      -1000.0     -1000.0     -1000.0     -1000.0     -1000.0     -1000.0     -1000.0     -1000.0     -1000.0     -1000.0    
      -1000.0     -1000.0     -1000.0     -1000.0     -1000.0     -1000.0     -1000.0     -1000.0     -1000.0     -1000.0    
  50  -1000.0     -1000.0     -1000.0     -1000.0     -1000.0     -1000.0     -1000.0     -1000.0     -1000.0     -1000.0    
      -1000.0     -1000.0     -1000.0     -1000.0     -1000.0     -1000.0     -1000.0     -1000.0     -1000.0     -1000.0    
      -1000.0     -1000.0     -1000.0     -1000.0     -1000.0     -1000.0     -1000.0     -1000.0     -1000.0     -1000.0    
      -1000.0     -1000.0     -1000.0     -1000.0     -1000.0     -1000.0     -1000.0     -1000.0     -1000.0     -1000.0    
      -1000.0     -1000.0     -1000.0     -1000.0     -1000.0     -1000.0     -1000.0     -1000.0     -1000.0     -1000.0    

 HEAD WILL BE SAVED ON UNIT   51 AT END OF TIME STEP    1, STRESS PERIOD    1
1
  VOLUMETRIC BUDGET FOR ENTIRE MODEL AT END OF TIME STEP    1, STRESS PERIOD   1
  ------------------------------------------------------------------------------

     CUMULATIVE VOLUMES      L**3       RATES FOR THIS TIME STEP      L**3/T
     ------------------                 ------------------------

           IN:                                      IN:
           ---                                      ---
             STORAGE =           0.0000               STORAGE =           0.0000
       CONSTANT HEAD =           0.0000         CONSTANT HEAD =           0.0000
                  ET =           0.0000                    ET =           0.0000
            RECHARGE =       20370.0000              RECHARGE =       20370.0000
      STREAM LEAKAGE =        3159.4087        STREAM LEAKAGE =        3159.4087

            TOTAL IN =       23529.4082              TOTAL IN =       23529.4082

          OUT:                                     OUT:
          ----                                     ----
             STORAGE =           0.0000               STORAGE =           0.0000
       CONSTANT HEAD =       11978.6201         CONSTANT HEAD =       11978.6201
                  ET =        2389.5950                    ET =        2389.5950
            RECHARGE =           0.0000              RECHARGE =           0.0000
      STREAM LEAKAGE =        9161.1982        STREAM LEAKAGE =        9161.1982

           TOTAL OUT =       23529.4141             TOTAL OUT =       23529.4141

            IN - OUT =      -5.8594E-03              IN - OUT =      -5.8594E-03

 PERCENT DISCREPANCY =          -0.00     PERCENT DISCREPANCY =          -0.00






         TIME SUMMARY AT END OF TIME STEP    1 IN STRESS PERIOD    1
                    SECONDS     MINUTES      HOURS       DAYS        YEARS
                    -----------------------------------------------------------
   TIME STEP LENGTH  86400.      1440.0      24.000      1.0000     2.73785E-03
 STRESS PERIOD TIME  86400.      1440.0      24.000      1.0000     2.73785E-03
         TOTAL TIME  86400.      1440.0      24.000      1.0000     2.73785E-03
1

 Run end date and time (yyyy/mm/dd hh:mm:ss): 2021/12/01 18:35:51
 Elapsed run time:  0.071 Seconds

