                                  MODFLOW-2005     
      U.S. GEOLOGICAL SURVEY MODULAR FINITE-DIFFERENCE GROUND-WATER FLOW MODEL
                            VERSION 1.12.00 2/3/2017

 LIST FILE: evapotranspiration.list
                         UNIT    2

 OPENING evapotranspiration.dis
 FILE TYPE:DIS   UNIT   11   STATUS:OLD    
 FORMAT:FORMATTED              ACCESS:SEQUENTIAL          

 OPENING evapotranspiration.bas
 FILE TYPE:BAS6   UNIT   13   STATUS:OLD    
 FORMAT:FORMATTED              ACCESS:SEQUENTIAL          

 OPENING evapotranspiration.lpf
 FILE TYPE:LPF   UNIT   15   STATUS:OLD    
 FORMAT:FORMATTED              ACCESS:SEQUENTIAL          

 OPENING evapotranspiration.oc
 FILE TYPE:OC   UNIT   14   STATUS:OLD    
 FORMAT:FORMATTED              ACCESS:SEQUENTIAL          

 OPENING evapotranspiration.pcg
 FILE TYPE:PCG   UNIT   27   STATUS:OLD    
 FORMAT:FORMATTED              ACCESS:SEQUENTIAL          

 OPENING evapotranspiration.rch
 FILE TYPE:RCH   UNIT   19   STATUS:OLD    
 FORMAT:FORMATTED              ACCESS:SEQUENTIAL          

 OPENING evapotranspiration.str
 FILE TYPE:STR   UNIT  118   STATUS:OLD    
 FORMAT:FORMATTED              ACCESS:SEQUENTIAL          

 OPENING evapotranspiration.evt
 FILE TYPE:EVT   UNIT   22   STATUS:OLD    
 FORMAT:FORMATTED              ACCESS:SEQUENTIAL          

 OPENING evapotranspiration.cbc
 FILE TYPE:DATA(BINARY)   UNIT   53   STATUS:REPLACE
 FORMAT:BINARY                 ACCESS:SEQUENTIAL          

 OPENING evapotranspiration.hds
 FILE TYPE:DATA(BINARY)   UNIT   51   STATUS:REPLACE
 FORMAT:BINARY                 ACCESS:SEQUENTIAL          

 BAS -- BASIC PACKAGE, VERSION 7, 5/2/2005 INPUT READ FROM UNIT   13
 
 MODFLOW was compiled using mixed precision
 Precision of REAL variables:           6
 Precision of DOUBLE PRECISION variables:          15

 DISCRETIZATION INPUT DATA READ FROM UNIT   11
 # DIS package for  MODFLOW-2005, generated by Flopy.
    2 LAYERS        50 ROWS        50 COLUMNS
    1 STRESS PERIOD(S) IN SIMULATION
 MODEL TIME UNIT IS DAYS
 MODEL LENGTH UNIT IS METERS
  Confining bed flag for each layer:
   0   0

                     DELR =   1000.00    

                     DELC =   1000.00    



           TOP ELEVATION OF LAYER 1
 READING ON UNIT   11 WITH FORMAT: (50E15.6)           



             MODEL LAYER BOTTOM EL. FOR LAYER   1
 READING ON UNIT   11 WITH FORMAT: (50E15.6)           



             MODEL LAYER BOTTOM EL. FOR LAYER   2
 READING ON UNIT   11 WITH FORMAT: (50E15.6)           


 STRESS PERIOD     LENGTH       TIME STEPS     MULTIPLIER FOR DELT    SS FLAG
 ----------------------------------------------------------------------------
        1         1.000000          1                    1.000         SS

 STEADY-STATE SIMULATION



 
 # BAS6 package for  MODFLOW-2005, generated by Flopy.                           
 THE FREE FORMAT OPTION HAS BEEN SELECTED



                     BOUNDARY ARRAY FOR LAYER   1
 READING ON UNIT   13 WITH FORMAT: (50I10)             



                     BOUNDARY ARRAY FOR LAYER   2
 READING ON UNIT   13 WITH FORMAT: (50I10)             

 AQUIFER HEAD WILL BE SET TO  -999.99     AT ALL NO-FLOW NODES (IBOUND=0).



                       INITIAL HEAD FOR LAYER   1
 READING ON UNIT   13 WITH FORMAT: (50E15.6)           



                       INITIAL HEAD FOR LAYER   2
 READING ON UNIT   13 WITH FORMAT: (50E15.6)           
 # OC package for  MODFLOW-2005, generated by Flopy.

 OUTPUT CONTROL IS SPECIFIED ONLY AT TIME STEPS FOR WHICH OUTPUT IS DESIRED
 COMPACT CELL-BY-CELL BUDGET FILES WILL BE WRITTEN
 AUXILIARY DATA WILL BE SAVED IN CELL-BY-CELL BUDGET FILES
 HEAD PRINT FORMAT CODE IS   0    DRAWDOWN PRINT FORMAT CODE IS   0
 HEADS WILL BE SAVED ON UNIT   51    DRAWDOWNS WILL BE SAVED ON UNIT    0

 LPF -- LAYER-PROPERTY FLOW PACKAGE, VERSION 7, 5/2/2005
         INPUT READ FROM UNIT   15
 # LPF package for  MODFLOW-2005, generated by Flopy.
 CELL-BY-CELL FLOWS WILL BE SAVED ON UNIT   53
 HEAD AT CELLS THAT CONVERT TO DRY= -1.00000E+30
 No named parameters

   LAYER FLAGS:
 LAYER       LAYTYP        LAYAVG         CHANI        LAYVKA        LAYWET
 ---------------------------------------------------------------------------
    1             1             0     0.000E+00             0             0
    2             1             0     0.000E+00             0             0

   INTERPRETATION OF LAYER FLAGS:
                        INTERBLOCK     HORIZONTAL    DATA IN
         LAYER TYPE   TRANSMISSIVITY   ANISOTROPY   ARRAY VKA   WETTABILITY
 LAYER      (LAYTYP)      (LAYAVG)       (CHANI)      (LAYVKA)      (LAYWET)
 ---------------------------------------------------------------------------
    1   CONVERTIBLE      HARMONIC      VARIABLE    VERTICAL K  NON-WETTABLE
    2   CONVERTIBLE      HARMONIC      VARIABLE    VERTICAL K  NON-WETTABLE

 WETTING CAPABILITY IS NOT ACTIVE IN ANY LAYER

    HYD. COND. ALONG ROWS =   10.0000     FOR LAYER   1

   HORIZ. ANI. (COL./ROW) =   1.00000     FOR LAYER   1

      VERTICAL HYD. COND. =   10.0000     FOR LAYER   1

    HYD. COND. ALONG ROWS =   10.0000     FOR LAYER   2

   HORIZ. ANI. (COL./ROW) =   1.00000     FOR LAYER   2

      VERTICAL HYD. COND. =   10.0000     FOR LAYER   2

 EVT -- EVAPOTRANSPIRATION PACKAGE, VERSION 7, 5/2/2005
         INPUT READ FROM UNIT   22
 # EVT package for  MODFLOW-2005, generated by Flopy.
 No named parameters
 OPTION 3 -- EVAPOTRANSPIRATION FROM HIGHEST ACTIVE NODE IN EACH VERTICAL COLUMN
 CELL-BY-CELL FLOWS WILL BE SAVED ON UNIT   53


     0 Evapotranspiration parameters

 RCH -- RECHARGE PACKAGE, VERSION 7, 5/2/2005 INPUT READ FROM UNIT   19
 # RCH package for  MODFLOW-2005, generated by Flopy.
 No named parameters
 OPTION 3 -- RECHARGE TO HIGHEST ACTIVE NODE IN EACH VERTICAL COLUMN


     0 Recharge parameters

 STR -- STREAM PACKAGE, VERSION 7, 5/2/2005 INPUT READ FROM UNIT  118
 # STR package for  MODFLOW-2005, generated by Flopy.
 No named parameters
 MAXIMUM OF     44 ACTIVE STREAM NODES AT ONE TIME
 NUMBER OF STREAM SEGMENTS IS      1
 NUMBER OF STREAM TRIBUTARIES IS      0
 CELL BUDGETS WILL BE SAVED ON UNITS   53 AND   53


     0 Stream parameters

 PCG -- CONJUGATE-GRADIENT SOLUTION PACKAGE, VERSION 7, 5/2/2005
 # PCG package for  MODFLOW-2005, generated by Flopy.
 MAXIMUM OF     50 CALLS OF SOLUTION ROUTINE
 MAXIMUM OF     30 INTERNAL ITERATIONS PER CALL TO SOLUTION ROUTINE
 MATRIX PRECONDITIONING TYPE :    1



                                    SOLUTION BY THE CONJUGATE-GRADIENT METHOD
                                   -------------------------------------------
                    MAXIMUM NUMBER OF CALLS TO PCG ROUTINE =       50
                        MAXIMUM ITERATIONS PER CALL TO PCG =       30
                               MATRIX PRECONDITIONING TYPE =        1
        RELAXATION FACTOR (ONLY USED WITH PRECOND. TYPE 1) =    0.10000E+01
 PARAMETER OF POLYNOMIAL PRECOND. = 2 (2) OR IS CALCULATED :        0
                         HEAD CHANGE CRITERION FOR CLOSURE =    0.10000E-04
                     RESIDUAL CHANGE CRITERION FOR CLOSURE =    0.10000E-04
            PCG HEAD AND RESIDUAL CHANGE PRINTOUT INTERVAL =      999
     PRINTING FROM SOLVER IS LIMITED(1) OR SUPPRESSED (>1) =        3
                            STEADY-STATE DAMPING PARAMETER =    0.10000E+01
                               TRANSIENT DAMPING PARAMETER =    0.10000E+01
1
                            STRESS PERIOD NO.    1, LENGTH =   1.000000    
                            -----------------------------------------------

                              NUMBER OF TIME STEPS =     1

                               MULTIPLIER FOR DELT =     1.000

                            INITIAL TIME STEP SIZE =   1.000000    



                         ET SURFACE
 READING ON UNIT   22 WITH FORMAT: (50E15.6)           



            EVAPOTRANSPIRATION RATE
 READING ON UNIT   22 WITH FORMAT: (50E15.6)           



                   EXTINCTION DEPTH
 READING ON UNIT   22 WITH FORMAT: (50E15.6)           



                           RECHARGE
 READING ON UNIT   19 WITH FORMAT: (50E15.6)           

     44 STREAM REACHES
 
 SOLVING FOR HEAD 

 OUTPUT CONTROL FOR STRESS PERIOD    1   TIME STEP    1
    PRINT HEAD FOR ALL LAYERS
    PRINT BUDGET
    SAVE HEAD FOR ALL LAYERS
    SAVE BUDGET
 UBDSV2 SAVING "   CONSTANT HEAD" ON UNIT  53 AT TIME STEP  1, STRESS PERIOD   1
 UBDSV1 SAVING "FLOW RIGHT FACE " ON UNIT  53 AT TIME STEP  1, STRESS PERIOD   1
 UBDSV1 SAVING "FLOW FRONT FACE " ON UNIT  53 AT TIME STEP  1, STRESS PERIOD   1
 UBDSV1 SAVING "FLOW LOWER FACE " ON UNIT  53 AT TIME STEP  1, STRESS PERIOD   1
 UBDSV3 SAVING "              ET" ON UNIT  53 AT TIME STEP  1, STRESS PERIOD   1
 UBDSV4 SAVING "  STREAM LEAKAGE" ON UNIT  53 AT TIME STEP  1, STRESS PERIOD   1
 UBDSV4 SAVING "STREAM FLOW OUT " ON UNIT  53 AT TIME STEP  1, STRESS PERIOD   1
1
              HEAD IN LAYER   1 AT END OF TIME STEP   1 IN STRESS PERIOD    1
  ---------------------------------------------------------------------------

            1           2           3           4           5           6           7           8           9          10
           11          12          13          14          15          16          17          18          19          20
           21          22          23          24          25          26          27          28          29          30
           31          32          33          34          35          36          37          38          39          40
           41          42          43          44          45          46          47          48          49          50
 ........................................................................................................................
   1  -1000.0     -1000.0     -1000.0     -1000.0     -1000.0     -1000.0     -1000.0     -1000.0     -1000.0     -1000.0    
      -1000.0     -1000.0     -1000.0     -1000.0     -1000.0     -1000.0     -1000.0     -1000.0     -1000.0     -1000.0    
      -1000.0     -1000.0     -1000.0     -1000.0     -1000.0     -1000.0     -1000.0     -1000.0     -1000.0     -1000.0    
      -1000.0     -1000.0     -1000.0     -1000.0     -1000.0     -1000.0     -1000.0     -1000.0     -1000.0     -1000.0    
      -1000.0     -1000.0     -1000.0     -1000.0     -1000.0     -1000.0     -1000.0     -1000.0     -1000.0     -1000.0    
   2  -1000.0     -1000.0     -1000.0     -1000.0     -1000.0     -1000.0     -1000.0     -1000.0     -1000.0     -1000.0    
      -1000.0     -1000.0     -1000.0     -1000.0     -1000.0     -1000.0     -1000.0     -1000.0     -1000.0     -1000.0    
      -1000.0     -1000.0     -1000.0       78.66       78.56       78.42       78.25       78.06       77.87       77.67    
        77.49       77.32       77.18       77.08     -1000.0     -1000.0     -1000.0     -1000.0     -1000.0     -1000.0    
      -1000.0     -1000.0     -1000.0     -1000.0     -1000.0     -1000.0     -1000.0     -1000.0     -1000.0     -1000.0    
   3  -1000.0     -1000.0     -1000.0     -1000.0     -1000.0     -1000.0     -1000.0     -1000.0     -1000.0     -1000.0    
      -1000.0     -1000.0     -1000.0     -1000.0     -1000.0     -1000.0     -1000.0     -1000.0     -1000.0     -1000.0    
      -1000.0     -1000.0       78.88       78.75       78.61       78.44       78.26       78.07       77.87       77.67    
        77.47       77.29       77.13       76.99       76.86     -1000.0     -1000.0     -1000.0     -1000.0     -1000.0    
      -1000.0     -1000.0     -1000.0     -1000.0     -1000.0     -1000.0     -1000.0     -1000.0     -1000.0     -1000.0    
   4  -1000.0     -1000.0     -1000.0     -1000.0     -1000.0     -1000.0     -1000.0     -1000.0     -1000.0     -1000.0    
      -1000.0     -1000.0     -1000.0     -1000.0     -1000.0     -1000.0     -1000.0     -1000.0     -1000.0     -1000.0    
      -1000.0     -1000.0       79.00       78.86       78.68       78.49       78.28       78.08       77.86       77.65    
        77.45       77.24       77.05       76.88       76.74     -1000.0     -1000.0     -1000.0     -1000.0     -1000.0    
      -1000.0     -1000.0     -1000.0     -1000.0     -1000.0     -1000.0     -1000.0     -1000.0     -1000.0     -1000.0    
   5  -1000.0     -1000.0     -1000.0     -1000.0     -1000.0     -1000.0     -1000.0     -1000.0     -1000.0     -1000.0    
      -1000.0     -1000.0     -1000.0     -1000.0     -1000.0     -1000.0     -1000.0       80.62       80.49       80.28    
        80.00       79.67       79.27       79.00       78.77       78.54       78.32       78.09       77.86       77.63    
        77.41       77.19       76.97       76.73       76.47       76.07       75.72       75.41       75.12       74.85    
        74.60       74.39       74.21       74.10     -1000.0     -1000.0     -1000.0     -1000.0     -1000.0     -1000.0    
   6  -1000.0     -1000.0     -1000.0     -1000.0     -1000.0     -1000.0     -1000.0     -1000.0     -1000.0     -1000.0    
      -1000.0     -1000.0     -1000.0     -1000.0     -1000.0     -1000.0     -1000.0       80.75       80.58       80.34    
        80.05       79.74       79.41       79.12       78.85       78.59       78.35       78.10       77.86       77.61    
        77.37       77.13       76.88       76.62       76.34       76.01       75.69       75.38       75.09       74.82    
        74.57       74.34       74.15       73.99       73.85     -1000.0     -1000.0     -1000.0     -1000.0     -1000.0    
   7  -1000.0     -1000.0     -1000.0     -1000.0     -1000.0     -1000.0     -1000.0     -1000.0     -1000.0     -1000.0    
      -1000.0     -1000.0     -1000.0       82.32       82.15       81.86       81.50       81.05       80.74       80.44    
        80.13       79.82       79.50       79.20       78.91       78.64       78.37       78.11       77.85       77.59    
        77.33       77.08       76.81       76.54       76.25       75.95       75.64       75.34       75.05       74.77    
        74.51       74.27       74.05       73.85       73.70     -1000.0     -1000.0     -1000.0     -1000.0     -1000.0    
   8  -1000.0     -1000.0     -1000.0     -1000.0     -1000.0     -1000.0     -1000.0     -1000.0     -1000.0     -1000.0    
      -1000.0     -1000.0       82.59       82.44       82.23       81.93       81.59       81.22       80.87       80.55    
        80.22       79.90       79.58       79.27       78.97       78.68       78.39       78.11       77.84       77.57    
        77.30       77.03       76.75       76.47       76.18       75.88       75.58       75.28       74.99       74.71    
        74.44       74.18       73.93       73.68       73.41       73.03       72.77       72.62     -1000.0     -1000.0    
   9  -1000.0     -1000.0     -1000.0     -1000.0     -1000.0     -1000.0     -1000.0     -1000.0     -1000.0     -1000.0    
      -1000.0     -1000.0       82.69       82.57       82.35       82.04       81.70       81.35       81.00       80.65    
        80.31       79.98       79.65       79.32       79.01       78.71       78.41       78.12       77.83       77.54    
        77.26       76.98       76.69       76.40       76.11       75.81       75.52       75.22       74.93       74.64    
        74.35       74.07       73.80       73.52       73.22       72.91       72.65       72.48     -1000.0     -1000.0    
  10  -1000.0     -1000.0     -1000.0     -1000.0     -1000.0     -1000.0     -1000.0     -1000.0     -1000.0     -1000.0    
      -1000.0     -1000.0       82.87       82.74       82.50       82.18       81.83       81.47       81.11       80.75    
        80.40       80.05       79.70       79.37       79.04       78.73       78.41       78.11       77.81       77.52    
        77.22       76.93       76.64       76.34       76.05       75.75       75.45       75.15       74.85       74.56    
        74.26       73.97       73.67       73.37       73.06       72.74       72.44       72.16       71.86     -1000.0    
  11  -1000.0     -1000.0     -1000.0     -1000.0     -1000.0     -1000.0     -1000.0     -1000.0     -1000.0     -1000.0    
      -1000.0     -1000.0       83.13       82.97       82.69       82.34       81.97       81.59       81.22       80.84    
        80.47       80.11       79.75       79.41       79.07       78.74       78.41       78.10       77.79       77.48    
        77.18       76.88       76.58       76.28       75.99       75.69       75.38       75.08       74.78       74.48    
        74.17       73.86       73.55       73.23       72.89       72.55       72.21       71.86       71.56     -1000.0    
  12  -1000.0     -1000.0     -1000.0     -1000.0     -1000.0     -1000.0     -1000.0     -1000.0     -1000.0     -1000.0    
      -1000.0     -1000.0       83.50       83.26       82.92       82.52       82.12       81.71       81.32       80.92    
        80.54       80.16       79.79       79.43       79.08       78.74       78.41       78.08       77.76       77.45    
        77.14       76.83       76.53       76.23       75.92       75.62       75.32       75.01       74.70       74.39    
        74.08       73.76       73.43       73.09       72.74       72.37       71.97       71.52       70.95       70.00    
  13  -1000.0     -1000.0     -1000.0     -1000.0     -1000.0       86.81       86.67       86.45       86.15       85.78    
        85.33       84.78       84.06       83.59       83.15       82.70       82.26       81.83       81.41       81.00    
        80.60       80.21       79.82       79.45       79.09       78.73       78.39       78.05       77.73       77.40    
        77.09       76.78       76.47       76.16       75.86       75.55       75.25       74.94       74.63       74.31    
        73.99       73.66       73.32       72.97       72.60       72.20       71.77       71.29       70.71       70.00    
  14  -1000.0     -1000.0     -1000.0       87.17       87.08       86.90       86.71       86.47       86.17       85.81    
        85.38       84.89       84.34       83.83       83.35       82.86       82.39       81.93       81.49       81.06    
        80.65       80.24       79.84       79.45       79.08       78.71       78.36       78.02       77.68       77.36    
        77.04       76.72       76.41       76.10       75.79       75.49       75.18       74.87       74.56       74.24    
        73.91       73.58       73.23       72.87       72.48       72.08       71.63       71.15       70.60       70.00    
  15  -1000.0     -1000.0       87.29       87.22       87.11       86.95       86.76       86.51       86.21       85.86    
        85.46       85.00       84.51       84.01       83.51       82.99       82.50       82.02       81.56       81.12    
        80.68       80.26       79.84       79.45       79.06       78.68       78.32       77.97       77.63       77.30    
        76.97       76.66       76.34       76.04       75.73       75.42       75.11       74.80       74.49       74.17    
        73.84       73.50       73.15       72.78       72.39       71.98       71.53       71.06       70.54       70.00    
  16  -1000.0     -1000.0       87.32       87.26       87.15       87.00       86.80       86.56       86.26       85.92    
        85.53       85.10       84.63       84.14       83.63       83.10       82.59       82.10       81.62       81.15    
        80.70       80.26       79.84       79.42       79.03       78.64       78.27       77.91       77.57       77.23    
        76.91       76.59       76.27       75.97       75.66       75.36       75.05       74.74       74.43       74.11    
        73.78       73.44       73.08       72.71       72.32       71.91       71.47       71.00       70.51       70.00    
  17  -1000.0     -1000.0       87.36       87.30       87.20       87.04       86.84       86.60       86.31       85.98    
        85.60       85.18       84.72       84.24       83.73       83.18       82.66       82.15       81.65       81.17    
        80.70       80.25       79.81       79.38       78.98       78.58       78.20       77.84       77.49       77.15    
        76.83       76.51       76.20       75.89       75.59       75.29       74.99       74.68       74.37       74.05    
        73.72       73.39       73.03       72.66       72.27       71.86       71.42       70.97       70.49       70.00    
  18  -1000.0     -1000.0       87.41       87.35       87.24       87.08       86.89       86.64       86.36       86.03    
        85.66       85.25       84.80       84.31       83.80       83.25       82.71       82.19       81.68       81.18    
        80.69       80.22       79.77       79.33       78.91       78.50       78.12       77.75       77.40       77.07    
        76.74       76.43       76.12       75.82       75.52       75.22       74.92       74.62       74.32       74.00    
        73.68       73.35       73.00       72.63       72.24       71.83       71.40       70.95       70.48       70.00    
  19  -1000.0       87.54       87.48       87.40       87.28       87.12       86.93       86.68       86.40       86.08    
        85.71       85.30       84.86       84.37       83.85       83.29       82.75       82.21       81.68       81.17    
        80.66       80.18       79.70       79.25       78.82       78.41       78.02       77.65       77.30       76.96    
        76.64       76.33       76.03       75.73       75.44       75.15       74.86       74.57       74.27       73.97    
        73.65       73.32       72.98       72.61       72.23       71.82       71.39       70.94       70.48       70.00    
  20  -1000.0       87.56       87.52       87.43       87.32       87.16       86.96       86.72       86.44       86.12    
        85.75       85.35       84.90       84.42       83.89       83.33       82.77       82.22       81.67       81.14    
        80.62       80.11       79.62       79.15       78.71       78.29       77.89       77.52       77.17       76.84    
        76.53       76.23       75.93       75.65       75.37       75.09       74.80       74.52       74.23       73.94    
        73.63       73.31       72.97       72.61       72.24       71.83       71.41       70.95       70.48       70.00    
  21  -1000.0       87.58       87.54       87.46       87.34       87.19       86.99       86.75       86.47       86.15    
        85.79       85.39       84.94       84.45       83.92       83.35       82.78       82.21       81.65       81.10    
        80.55       80.02       79.51       79.02       78.57       78.14       77.74       77.37       77.03       76.71    
        76.40       76.11       75.83       75.55       75.28       75.02       74.75       74.48       74.20       73.92    
        73.62       73.31       72.99       72.64       72.27       71.87       71.44       70.98       70.50       70.00    
  22  -1000.0       87.60       87.56       87.48       87.37       87.21       87.01       86.78       86.50       86.18    
        85.82       85.42       84.97       84.48       83.94       83.36       82.78       82.20       81.62       81.04    
        80.47       79.91       79.38       78.87       78.39       77.96       77.56       77.20       76.87       76.56    
        76.26       75.98       75.72       75.46       75.20       74.95       74.69       74.44       74.17       73.91    
        73.62       73.33       73.02       72.68       72.32       71.93       71.50       71.03       70.53       70.00    
  23  -1000.0       87.61       87.57       87.50       87.38       87.23       87.03       86.80       86.52       86.20    
        85.84       85.44       84.99       84.50       83.96       83.37       82.78       82.18       81.58       80.97    
        80.37       79.78       79.21       78.67       78.17       77.74       77.34       76.99       76.68       76.38    
        76.11       75.85       75.60       75.35       75.11       74.88       74.64       74.40       74.16       73.90    
        73.64       73.37       73.07       72.75       72.41       72.02       71.60       71.11       70.58       70.00    
  24  -1000.0       87.62       87.58       87.50       87.39       87.23       87.04       86.81       86.54       86.22    
        85.86       85.46       85.01       84.52       83.97       83.38       82.77       82.16       81.53       80.90    
        80.26       79.62       79.01       78.43       77.90       77.46       77.08       76.76       76.46       76.19    
        75.94       75.70       75.47       75.24       75.02       74.81       74.59       74.37       74.14       73.91    
        73.67       73.42       73.15       72.85       72.53       72.16       71.74       71.25       70.66       70.00    
  25  -1000.0       87.62       87.57       87.50       87.39       87.24       87.05       86.82       86.55       86.23    
        85.88       85.48       85.03       84.54       83.99       83.39       82.77       82.14       81.50       80.82    
        80.13       79.44       78.76       78.13       77.58       77.14       76.78       76.48       76.22       75.97    
        75.75       75.53       75.33       75.13       74.93       74.74       74.54       74.34       74.14       73.93    
        73.71       73.49       73.24       72.98       72.69       72.35       71.96       71.46       70.82       70.00    
  26  -1000.0       87.61       87.56       87.49       87.38       87.23       87.05       86.82       86.55       86.24    
        85.89       85.49       85.05       84.55       84.01       83.41       82.79       82.14       81.49       80.76    
        80.00       79.24       78.50       77.80       77.18       76.77       76.46       76.20       75.97       75.76    
        75.56       75.37       75.19       75.01       74.84       74.66       74.49       74.31       74.14       73.95    
        73.77       73.57       73.36       73.14       72.89       72.61       72.27       71.82       71.13       70.00    
  27  -1000.0     -1000.0       87.52       87.46       87.36       87.22       87.04       86.81       86.55       86.25    
        85.90       85.50       85.06       84.57       84.03       83.44       82.83       82.21       81.57       80.90    
        80.22       79.53       78.86       78.24       77.69       77.25       76.89       76.59       76.32       76.08    
        75.84       75.62       75.41       75.21       75.00       74.80       74.60       74.39       74.19       73.97    
        73.75       73.52       73.27       73.00       72.70       72.37       71.96       71.47       70.82       70.00    
  28  -1000.0     -1000.0       87.49       87.44       87.34       87.20       87.02       86.80       86.55       86.25    
        85.90       85.51       85.08       84.60       84.06       83.48       82.89       82.29       81.68       81.06    
        80.43       79.81       79.21       78.64       78.12       77.68       77.31       76.97       76.67       76.39    
        76.13       75.88       75.64       75.40       75.17       74.94       74.71       74.48       74.24       74.00    
        73.74       73.48       73.20       72.89       72.56       72.18       71.76       71.25       70.67       70.00    
  29  -1000.0     -1000.0       87.47       87.42       87.32       87.18       87.00       86.79       86.54       86.24    
        85.90       85.52       85.09       84.62       84.09       83.52       82.95       82.37       81.79       81.21    
        80.64       80.07       79.52       78.99       78.51       78.08       77.69       77.33       77.01       76.70    
        76.40       76.12       75.85       75.59       75.33       75.07       74.82       74.56       74.30       74.03    
        73.75       73.46       73.14       72.81       72.45       72.06       71.62       71.13       70.58       70.00    
  30  -1000.0     -1000.0       87.45       87.40       87.29       87.14       86.97       86.76       86.52       86.23    
        85.90       85.53       85.10       84.63       84.12       83.56       83.00       82.45       81.90       81.36    
        80.83       80.31       79.80       79.31       78.85       78.43       78.03       77.66       77.32       76.98    
        76.66       76.35       76.05       75.77       75.49       75.21       74.93       74.65       74.37       74.07    
        73.77       73.45       73.11       72.76       72.38       71.97       71.52       71.05       70.53       70.00    
  31  -1000.0     -1000.0       87.44       87.39       87.27       87.08       86.92       86.73       86.50       86.22    
        85.90       85.53       85.11       84.65       84.14       83.59       83.05       82.52       82.00       81.49    
        81.01       80.53       80.06       79.60       79.16       78.74       78.35       77.97       77.61       77.25    
        76.90       76.57       76.25       75.94       75.64       75.34       75.05       74.75       74.44       74.12    
        73.80       73.46       73.10       72.73       72.33       71.91       71.47       71.00       70.51       70.00    
  32  -1000.0     -1000.0     -1000.0     -1000.0     -1000.0       86.95       86.85       86.69       86.48       86.21    
        85.89       85.53       85.12       84.66       84.16       83.62       83.09       82.57       82.08       81.60    
        81.15       80.70       80.26       79.83       79.41       79.00       78.61       78.23       77.86       77.49    
        77.12       76.77       76.43       76.11       75.79       75.48       75.16       74.84       74.52       74.19    
        73.84       73.48       73.10       72.71       72.30       71.88       71.43       70.97       70.49       70.00    
  33  -1000.0     -1000.0     -1000.0     -1000.0     -1000.0       86.88       86.80       86.66       86.46       86.20    
        85.89       85.53       85.12       84.66       84.16       83.62       83.11       82.61       82.14       81.69    
        81.26       80.84       80.42       80.01       79.61       79.22       78.83       78.45       78.07       77.69    
        77.31       76.95       76.60       76.26       75.93       75.61       75.28       74.95       74.61       74.26    
        73.89       73.52       73.12       72.72       72.29       71.86       71.41       70.95       70.48       70.00    
  34  -1000.0     -1000.0     -1000.0     -1000.0     -1000.0       86.83       86.77       86.64       86.45       86.20    
        85.89       85.53       85.11       84.65       84.14       83.61       83.10       82.62       82.16       81.74    
        81.34       80.94       80.55       80.15       79.77       79.38       79.01       78.63       78.25       77.87    
        77.48       77.11       76.75       76.41       76.07       75.74       75.40       75.06       74.71       74.34    
        73.96       73.57       73.15       72.73       72.29       71.85       71.39       70.93       70.47       70.00    
  35  -1000.0     -1000.0     -1000.0     -1000.0     -1000.0       86.81       86.75       86.63       86.45       86.21    
        85.90       85.54       85.11       84.63       84.11       83.57       83.07       82.60       82.16       81.76    
        81.38       81.01       80.63       80.26       79.89       79.52       79.15       78.78       78.40       78.02    
        77.63       77.26       76.90       76.55       76.21       75.87       75.52       75.18       74.82       74.44    
        74.04       73.63       73.20       72.75       72.30       71.84       71.38       70.92       70.46       70.00    
  36  -1000.0     -1000.0     -1000.0     -1000.0     -1000.0       86.80       86.74       86.63       86.46       86.23    
        85.93       85.56       85.10       84.59       84.04       83.50       83.00       82.54       82.13       81.75    
        81.39       81.04       80.68       80.33       79.97       79.61       79.26       78.89       78.52       78.15    
        77.76       77.39       77.03       76.68       76.34       76.00       75.65       75.30       74.94       74.55    
        74.14       73.70       73.25       72.78       72.31       71.84       71.37       70.91       70.45       70.00    
  37  -1000.0     -1000.0     -1000.0     -1000.0     -1000.0       86.80       86.75       86.65       86.50       86.28    
        85.99       85.61       85.10       84.54       83.93       83.36       82.88       82.45       82.06       81.70    
        81.37       81.04       80.71       80.37       80.02       79.68       79.33       78.98       78.62       78.25    
        77.87       77.50       77.15       76.80       76.46       76.12       75.79       75.44       75.08       74.69    
        74.27       73.80       73.31       72.81       72.32       71.83       71.35       70.88       70.44       70.00    
  38  -1000.0     -1000.0     -1000.0     -1000.0     -1000.0       86.80       86.76       86.67       86.54       86.36    
        86.09       85.72       85.12       84.48       83.73       83.15       82.70       82.31       81.95       81.63    
        81.33       81.01       80.70       80.37       80.05       79.72       79.38       79.04       78.70       78.34    
        77.96       77.61       77.26       76.92       76.58       76.25       75.93       75.59       75.25       74.87    
        74.43       73.90       73.37       72.84       72.32       71.81       71.30       70.84       70.41       70.00    
  39  -1000.0     -1000.0     -1000.0     -1000.0     -1000.0     -1000.0       86.76       86.70       86.60       86.46    
        86.26       86.02     -1000.0     -1000.0       83.29       82.81       82.45       82.13       81.82       81.53    
        81.25       80.96       80.66       80.35       80.04       79.73       79.41       79.08       78.75       78.40    
        78.04       77.69       77.36       77.02       76.70       76.38       76.07       75.76       75.44       75.11    
        74.69       74.00       73.41       72.86       72.32       71.78       71.19       70.77       70.37       70.00    
  40  -1000.0     -1000.0     -1000.0     -1000.0     -1000.0     -1000.0       86.76       86.73       86.66       86.56    
        86.44     -1000.0     -1000.0     -1000.0     -1000.0       82.34       82.16       81.93       81.68       81.42    
        81.16       80.89       80.60       80.30       80.01       79.70       79.40       79.09       78.78       78.45    
        78.11       77.77       77.44       77.12       76.80       76.50       76.21       75.92       75.66       75.41    
        75.22     -1000.0     -1000.0     -1000.0     -1000.0     -1000.0       70.93       70.67       70.30       70.00    
  41  -1000.0     -1000.0     -1000.0     -1000.0     -1000.0     -1000.0     -1000.0       86.74       86.70       86.65    
      -1000.0     -1000.0     -1000.0     -1000.0     -1000.0       82.04       81.93       81.75       81.54       81.31    
        81.06       80.79       80.51       80.23       79.94       79.65       79.37       79.08       78.78       78.48    
        78.17       77.85       77.53       77.21       76.90       76.61       76.33       76.08       75.85       75.67    
        75.55     -1000.0     -1000.0     -1000.0     -1000.0     -1000.0     -1000.0     -1000.0       70.15       70.00    
  42  -1000.0     -1000.0     -1000.0     -1000.0     -1000.0     -1000.0     -1000.0     -1000.0     -1000.0     -1000.0    
      -1000.0     -1000.0     -1000.0     -1000.0     -1000.0       81.84       81.76       81.61       81.43       81.21    
        80.97       80.70       80.43       80.15       79.87       79.60       79.34       79.07       78.80       78.52    
        78.23       77.92       77.60       77.28       76.98       76.69       76.43       76.20       76.00       75.85    
        75.77     -1000.0     -1000.0     -1000.0     -1000.0     -1000.0     -1000.0     -1000.0     -1000.0     -1000.0    
  43  -1000.0     -1000.0     -1000.0     -1000.0     -1000.0     -1000.0     -1000.0     -1000.0     -1000.0     -1000.0    
      -1000.0     -1000.0     -1000.0     -1000.0     -1000.0       81.74       81.64       81.51       81.34       81.14    
        80.90       80.63       80.34       80.07       79.80       79.55       79.30       79.06       78.82       78.57    
        78.30       78.01       77.67       77.34       77.04       76.76       76.50       76.28       76.10       75.97    
        75.90     -1000.0     -1000.0     -1000.0     -1000.0     -1000.0     -1000.0     -1000.0     -1000.0     -1000.0    
  44  -1000.0     -1000.0     -1000.0     -1000.0     -1000.0     -1000.0     -1000.0     -1000.0     -1000.0     -1000.0    
      -1000.0     -1000.0     -1000.0     -1000.0     -1000.0     -1000.0       81.55       81.45       81.30       81.10    
        80.86       80.58       80.24       79.98       79.72       79.49       79.26       79.05       78.84       78.63    
        78.41       78.14       77.73       77.38       77.07       76.79       76.54       76.32       76.15       76.03    
        75.97     -1000.0     -1000.0     -1000.0     -1000.0     -1000.0     -1000.0     -1000.0     -1000.0     -1000.0    
  45  -1000.0     -1000.0     -1000.0     -1000.0     -1000.0     -1000.0     -1000.0     -1000.0     -1000.0     -1000.0    
      -1000.0     -1000.0     -1000.0     -1000.0     -1000.0     -1000.0     -1000.0     -1000.0     -1000.0     -1000.0    
      -1000.0     -1000.0       80.07       79.89       79.62       79.40       79.22       79.04       78.87       78.70    
        78.55       78.42     -1000.0     -1000.0     -1000.0     -1000.0     -1000.0     -1000.0     -1000.0     -1000.0    
      -1000.0     -1000.0     -1000.0     -1000.0     -1000.0     -1000.0     -1000.0     -1000.0     -1000.0     -1000.0    
  46  -1000.0     -1000.0     -1000.0     -1000.0     -1000.0     -1000.0     -1000.0     -1000.0     -1000.0     -1000.0    
      -1000.0     -1000.0     -1000.0     -1000.0     -1000.0     -1000.0     -1000.0     -1000.0     -1000.0     -1000.0    
      -1000.0     -1000.0     -1000.0     -1000.0       79.46       79.30       79.16       79.02       78.89       78.77    
        78.66       78.58     -1000.0     -1000.0     -1000.0     -1000.0     -1000.0     -1000.0     -1000.0     -1000.0    
      -1000.0     -1000.0     -1000.0     -1000.0     -1000.0     -1000.0     -1000.0     -1000.0     -1000.0     -1000.0    
  47  -1000.0     -1000.0     -1000.0     -1000.0     -1000.0     -1000.0     -1000.0     -1000.0     -1000.0     -1000.0    
      -1000.0     -1000.0     -1000.0     -1000.0     -1000.0     -1000.0     -1000.0     -1000.0     -1000.0     -1000.0    
      -1000.0     -1000.0     -1000.0     -1000.0     -1000.0       79.16       79.10       79.01       78.91       78.82    
        78.73       78.65     -1000.0     -1000.0     -1000.0     -1000.0     -1000.0     -1000.0     -1000.0     -1000.0    
      -1000.0     -1000.0     -1000.0     -1000.0     -1000.0     -1000.0     -1000.0     -1000.0     -1000.0     -1000.0    
  48  -1000.0     -1000.0     -1000.0     -1000.0     -1000.0     -1000.0     -1000.0     -1000.0     -1000.0     -1000.0    
      -1000.0     -1000.0     -1000.0     -1000.0     -1000.0     -1000.0     -1000.0     -1000.0     -1000.0     -1000.0    
      -1000.0     -1000.0     -1000.0     -1000.0     -1000.0       79.09       79.05       78.99       78.93       78.86    
        78.79     -1000.0     -1000.0     -1000.0     -1000.0     -1000.0     -1000.0     -1000.0     -1000.0     -1000.0    
      -1000.0     -1000.0     -1000.0     -1000.0     -1000.0     -1000.0     -1000.0     -1000.0     -1000.0     -1000.0    
  49  -1000.0     -1000.0     -1000.0     -1000.0     -1000.0     -1000.0     -1000.0     -1000.0     -1000.0     -1000.0    
      -1000.0     -1000.0     -1000.0     -1000.0     -1000.0     -1000.0     -1000.0     -1000.0     -1000.0     -1000.0    
      -1000.0     -1000.0     -1000.0     -1000.0     -1000.0       79.07       79.04       78.99       78.94       78.90    
      -1000.0     -1000.0     -1000.0     -1000.0     -1000.0     -1000.0     -1000.0     -1000.0     -1000.0     -1000.0    
      -1000.0     -1000.0     -1000.0     -1000.0     -1000.0     -1000.0     -1000.0     -1000.0     -1000.0     -1000.0    
  50  -1000.0     -1000.0     -1000.0     -1000.0     -1000.0     -1000.0     -1000.0     -1000.0     -1000.0     -1000.0    
      -1000.0     -1000.0     -1000.0     -1000.0     -1000.0     -1000.0     -1000.0     -1000.0     -1000.0     -1000.0    
      -1000.0     -1000.0     -1000.0     -1000.0     -1000.0     -1000.0     -1000.0     -1000.0     -1000.0     -1000.0    
      -1000.0     -1000.0     -1000.0     -1000.0     -1000.0     -1000.0     -1000.0     -1000.0     -1000.0     -1000.0    
      -1000.0     -1000.0     -1000.0     -1000.0     -1000.0     -1000.0     -1000.0     -1000.0     -1000.0     -1000.0    
1
              HEAD IN LAYER   2 AT END OF TIME STEP   1 IN STRESS PERIOD    1
  ---------------------------------------------------------------------------

            1           2           3           4           5           6           7           8           9          10
           11          12          13          14          15          16          17          18          19          20
           21          22          23          24          25          26          27          28          29          30
           31          32          33          34          35          36          37          38          39          40
           41          42          43          44          45          46          47          48          49          50
 ........................................................................................................................
   1  -1000.0     -1000.0     -1000.0     -1000.0     -1000.0     -1000.0     -1000.0     -1000.0     -1000.0     -1000.0    
      -1000.0     -1000.0     -1000.0     -1000.0     -1000.0     -1000.0     -1000.0     -1000.0     -1000.0     -1000.0    
      -1000.0     -1000.0     -1000.0     -1000.0     -1000.0     -1000.0     -1000.0     -1000.0     -1000.0     -1000.0    
      -1000.0     -1000.0     -1000.0     -1000.0     -1000.0     -1000.0     -1000.0     -1000.0     -1000.0     -1000.0    
      -1000.0     -1000.0     -1000.0     -1000.0     -1000.0     -1000.0     -1000.0     -1000.0     -1000.0     -1000.0    
   2  -1000.0     -1000.0     -1000.0     -1000.0     -1000.0     -1000.0     -1000.0     -1000.0     -1000.0     -1000.0    
      -1000.0     -1000.0     -1000.0     -1000.0     -1000.0     -1000.0     -1000.0     -1000.0     -1000.0     -1000.0    
      -1000.0     -1000.0     -1000.0       78.66       78.56       78.42       78.25       78.06       77.87       77.67    
        77.49       77.32       77.18       77.08     -1000.0     -1000.0     -1000.0     -1000.0     -1000.0     -1000.0    
      -1000.0     -1000.0     -1000.0     -1000.0     -1000.0     -1000.0     -1000.0     -1000.0     -1000.0     -1000.0    
   3  -1000.0     -1000.0     -1000.0     -1000.0     -1000.0     -1000.0     -1000.0     -1000.0     -1000.0     -1000.0    
      -1000.0     -1000.0     -1000.0     -1000.0     -1000.0     -1000.0     -1000.0     -1000.0     -1000.0     -1000.0    
      -1000.0     -1000.0       78.88       78.75       78.61       78.44       78.26       78.07       77.87       77.67    
        77.47       77.29       77.13       76.99       76.86     -1000.0     -1000.0     -1000.0     -1000.0     -1000.0    
      -1000.0     -1000.0     -1000.0     -1000.0     -1000.0     -1000.0     -1000.0     -1000.0     -1000.0     -1000.0    
   4  -1000.0     -1000.0     -1000.0     -1000.0     -1000.0     -1000.0     -1000.0     -1000.0     -1000.0     -1000.0    
      -1000.0     -1000.0     -1000.0     -1000.0     -1000.0     -1000.0     -1000.0     -1000.0     -1000.0     -1000.0    
      -1000.0     -1000.0       79.00       78.86       78.68       78.49       78.28       78.08       77.86       77.65    
        77.45       77.24       77.05       76.88       76.74     -1000.0     -1000.0     -1000.0     -1000.0     -1000.0    
      -1000.0     -1000.0     -1000.0     -1000.0     -1000.0     -1000.0     -1000.0     -1000.0     -1000.0     -1000.0    
   5  -1000.0     -1000.0     -1000.0     -1000.0     -1000.0     -1000.0     -1000.0     -1000.0     -1000.0     -1000.0    
      -1000.0     -1000.0     -1000.0     -1000.0     -1000.0     -1000.0     -1000.0       80.62       80.49       80.28    
        80.00       79.67       79.27       79.00       78.77       78.54       78.32       78.09       77.86       77.63    
        77.41       77.19       76.97       76.73       76.47       76.07       75.72       75.41       75.12       74.85    
        74.60       74.39       74.21       74.10     -1000.0     -1000.0     -1000.0     -1000.0     -1000.0     -1000.0    
   6  -1000.0     -1000.0     -1000.0     -1000.0     -1000.0     -1000.0     -1000.0     -1000.0     -1000.0     -1000.0    
      -1000.0     -1000.0     -1000.0     -1000.0     -1000.0     -1000.0     -1000.0       80.75       80.58       80.34    
        80.05       79.74       79.41       79.12       78.85       78.59       78.35       78.10       77.86       77.61    
        77.37       77.13       76.88       76.62       76.34       76.01       75.69       75.38       75.09       74.82    
        74.57       74.34       74.15       73.99       73.85     -1000.0     -1000.0     -1000.0     -1000.0     -1000.0    
   7  -1000.0     -1000.0     -1000.0     -1000.0     -1000.0     -1000.0     -1000.0     -1000.0     -1000.0     -1000.0    
      -1000.0     -1000.0     -1000.0       82.32       82.15       81.86       81.50       81.05       80.74       80.44    
        80.13       79.82       79.50       79.20       78.91       78.64       78.37       78.11       77.85       77.59    
        77.33       77.08       76.81       76.54       76.25       75.95       75.64       75.34       75.05       74.77    
        74.51       74.27       74.05       73.85       73.70     -1000.0     -1000.0     -1000.0     -1000.0     -1000.0    
   8  -1000.0     -1000.0     -1000.0     -1000.0     -1000.0     -1000.0     -1000.0     -1000.0     -1000.0     -1000.0    
      -1000.0     -1000.0       82.59       82.44       82.23       81.93       81.59       81.22       80.87       80.55    
        80.22       79.90       79.58       79.27       78.97       78.68       78.39       78.11       77.84       77.57    
        77.30       77.03       76.75       76.47       76.18       75.88       75.58       75.28       74.99       74.71    
        74.44       74.18       73.93       73.68       73.41       73.03       72.77       72.62     -1000.0     -1000.0    
   9  -1000.0     -1000.0     -1000.0     -1000.0     -1000.0     -1000.0     -1000.0     -1000.0     -1000.0     -1000.0    
      -1000.0     -1000.0       82.69       82.57       82.35       82.04       81.70       81.35       81.00       80.65    
        80.31       79.98       79.65       79.32       79.01       78.71       78.41       78.12       77.83       77.54    
        77.26       76.98       76.69       76.40       76.11       75.81       75.52       75.22       74.93       74.64    
        74.35       74.07       73.80       73.52       73.22       72.91       72.65       72.48     -1000.0     -1000.0    
  10  -1000.0     -1000.0     -1000.0     -1000.0     -1000.0     -1000.0     -1000.0     -1000.0     -1000.0     -1000.0    
      -1000.0     -1000.0       82.87       82.74       82.50       82.18       81.83       81.47       81.11       80.75    
        80.40       80.05       79.70       79.37       79.04       78.73       78.41       78.11       77.81       77.52    
        77.22       76.93       76.64       76.34       76.05       75.75       75.45       75.15       74.85       74.56    
        74.26       73.97       73.67       73.37       73.06       72.74       72.44       72.16       71.86     -1000.0    
  11  -1000.0     -1000.0     -1000.0     -1000.0     -1000.0     -1000.0     -1000.0     -1000.0     -1000.0     -1000.0    
      -1000.0     -1000.0       83.13       82.97       82.69       82.34       81.97       81.59       81.22       80.84    
        80.47       80.11       79.75       79.41       79.07       78.74       78.41       78.10       77.79       77.48    
        77.18       76.88       76.58       76.28       75.99       75.69       75.38       75.08       74.78       74.48    
        74.17       73.86       73.55       73.23       72.89       72.55       72.21       71.86       71.56     -1000.0    
  12  -1000.0     -1000.0     -1000.0     -1000.0     -1000.0     -1000.0     -1000.0     -1000.0     -1000.0     -1000.0    
      -1000.0     -1000.0       83.50       83.26       82.92       82.52       82.12       81.71       81.32       80.92    
        80.54       80.16       79.79       79.43       79.08       78.74       78.41       78.08       77.76       77.45    
        77.14       76.83       76.53       76.23       75.92       75.62       75.32       75.01       74.70       74.39    
        74.08       73.76       73.43       73.09       72.74       72.37       71.97       71.52       70.95       70.00    
  13  -1000.0     -1000.0     -1000.0     -1000.0     -1000.0       86.81       86.67       86.45       86.15       85.78    
        85.33       84.78       84.06       83.59       83.15       82.70       82.26       81.83       81.41       81.00    
        80.60       80.21       79.82       79.45       79.09       78.73       78.39       78.05       77.73       77.40    
        77.09       76.78       76.47       76.16       75.86       75.55       75.25       74.94       74.63       74.31    
        73.99       73.66       73.32       72.97       72.60       72.20       71.77       71.29       70.71       70.00    
  14  -1000.0     -1000.0     -1000.0       87.17       87.08       86.90       86.71       86.47       86.17       85.81    
        85.38       84.89       84.34       83.83       83.35       82.86       82.39       81.93       81.49       81.06    
        80.65       80.24       79.84       79.45       79.08       78.71       78.36       78.02       77.68       77.36    
        77.04       76.72       76.41       76.10       75.79       75.49       75.18       74.87       74.56       74.24    
        73.91       73.58       73.23       72.87       72.48       72.08       71.63       71.15       70.60       70.00    
  15  -1000.0     -1000.0       87.29       87.22       87.11       86.95       86.76       86.51       86.21       85.86    
        85.46       85.00       84.51       84.01       83.51       82.99       82.50       82.02       81.56       81.12    
        80.68       80.26       79.84       79.45       79.06       78.68       78.32       77.97       77.63       77.30    
        76.97       76.66       76.34       76.04       75.73       75.42       75.11       74.80       74.49       74.17    
        73.84       73.50       73.15       72.78       72.39       71.98       71.53       71.06       70.54       70.00    
  16  -1000.0     -1000.0       87.32       87.26       87.15       87.00       86.80       86.56       86.26       85.92    
        85.53       85.10       84.63       84.14       83.63       83.10       82.59       82.10       81.62       81.15    
        80.70       80.26       79.84       79.42       79.03       78.64       78.27       77.91       77.57       77.23    
        76.91       76.59       76.27       75.97       75.66       75.36       75.05       74.74       74.43       74.11    
        73.78       73.44       73.08       72.71       72.32       71.91       71.47       71.00       70.51       70.00    
  17  -1000.0     -1000.0       87.36       87.30       87.20       87.04       86.84       86.60       86.31       85.98    
        85.60       85.18       84.72       84.24       83.73       83.18       82.66       82.15       81.65       81.17    
        80.70       80.25       79.81       79.38       78.98       78.58       78.20       77.84       77.49       77.15    
        76.83       76.51       76.20       75.89       75.59       75.29       74.99       74.68       74.37       74.05    
        73.72       73.39       73.03       72.66       72.27       71.86       71.42       70.97       70.49       70.00    
  18  -1000.0     -1000.0       87.41       87.35       87.24       87.08       86.89       86.64       86.36       86.03    
        85.66       85.25       84.80       84.31       83.80       83.25       82.71       82.19       81.68       81.18    
        80.69       80.22       79.77       79.33       78.91       78.50       78.12       77.75       77.40       77.07    
        76.74       76.43       76.12       75.82       75.52       75.22       74.92       74.62       74.32       74.00    
        73.68       73.35       73.00       72.63       72.24       71.83       71.40       70.95       70.48       70.00    
  19  -1000.0       87.54       87.48       87.40       87.28       87.12       86.93       86.68       86.40       86.08    
        85.71       85.30       84.86       84.37       83.85       83.29       82.75       82.21       81.68       81.17    
        80.66       80.18       79.70       79.25       78.82       78.41       78.02       77.65       77.30       76.96    
        76.64       76.33       76.03       75.73       75.44       75.15       74.86       74.57       74.27       73.97    
        73.65       73.32       72.98       72.61       72.23       71.82       71.39       70.94       70.48       70.00    
  20  -1000.0       87.56       87.52       87.43       87.32       87.16       86.96       86.72       86.44       86.12    
        85.75       85.35       84.90       84.42       83.89       83.33       82.77       82.22       81.67       81.14    
        80.62       80.11       79.62       79.15       78.71       78.29       77.89       77.52       77.17       76.84    
        76.53       76.23       75.93       75.65       75.37       75.09       74.80       74.52       74.23       73.94    
        73.63       73.31       72.97       72.61       72.24       71.83       71.41       70.95       70.48       70.00    
  21  -1000.0       87.58       87.54       87.46       87.34       87.19       86.99       86.75       86.47       86.15    
        85.79       85.39       84.94       84.45       83.92       83.35       82.78       82.21       81.65       81.10    
        80.55       80.02       79.51       79.02       78.57       78.14       77.74       77.37       77.03       76.71    
        76.40       76.11       75.83       75.55       75.28       75.02       74.75       74.48       74.20       73.92    
        73.62       73.31       72.99       72.64       72.27       71.87       71.44       70.98       70.50       70.00    
  22  -1000.0       87.60       87.56       87.48       87.37       87.21       87.01       86.78       86.50       86.18    
        85.82       85.42       84.97       84.48       83.94       83.36       82.78       82.20       81.62       81.04    
        80.47       79.91       79.38       78.87       78.39       77.96       77.56       77.20       76.87       76.56    
        76.26       75.98       75.72       75.46       75.20       74.95       74.69       74.44       74.17       73.91    
        73.62       73.33       73.02       72.68       72.32       71.93       71.50       71.03       70.53       70.00    
  23  -1000.0       87.61       87.57       87.50       87.38       87.22       87.03       86.80       86.52       86.20    
        85.84       85.44       84.99       84.50       83.96       83.37       82.78       82.18       81.58       80.97    
        80.37       79.78       79.21       78.67       78.17       77.74       77.34       76.99       76.68       76.38    
        76.11       75.85       75.60       75.35       75.11       74.88       74.64       74.40       74.16       73.90    
        73.64       73.37       73.07       72.75       72.41       72.02       71.60       71.11       70.58       70.00    
  24  -1000.0       87.62       87.58       87.50       87.39       87.23       87.04       86.81       86.54       86.22    
        85.86       85.46       85.01       84.52       83.97       83.38       82.77       82.16       81.53       80.90    
        80.26       79.62       79.01       78.43       77.90       77.46       77.08       76.76       76.46       76.19    
        75.94       75.70       75.47       75.24       75.02       74.81       74.59       74.37       74.14       73.91    
        73.67       73.42       73.15       72.85       72.53       72.16       71.74       71.25       70.66       70.00    
  25  -1000.0       87.62       87.57       87.50       87.39       87.24       87.05       86.82       86.55       86.23    
        85.88       85.48       85.03       84.54       83.99       83.39       82.77       82.14       81.50       80.82    
        80.13       79.44       78.76       78.13       77.58       77.14       76.78       76.48       76.22       75.97    
        75.75       75.53       75.33       75.13       74.93       74.74       74.54       74.34       74.14       73.93    
        73.71       73.49       73.24       72.98       72.69       72.35       71.96       71.46       70.82       70.00    
  26  -1000.0       87.61       87.56       87.49       87.38       87.23       87.05       86.82       86.55       86.24    
        85.89       85.49       85.05       84.55       84.01       83.41       82.79       82.14       81.49       80.76    
        80.00       79.24       78.50       77.80       77.18       76.78       76.46       76.20       75.97       75.76    
        75.56       75.37       75.19       75.01       74.84       74.67       74.49       74.32       74.14       73.95    
        73.77       73.57       73.36       73.14       72.89       72.61       72.27       71.82       71.13       70.00    
  27  -1000.0     -1000.0       87.52       87.46       87.36       87.22       87.04       86.81       86.55       86.25    
        85.90       85.50       85.06       84.57       84.03       83.44       82.83       82.21       81.57       80.90    
        80.22       79.53       78.86       78.24       77.69       77.25       76.89       76.59       76.32       76.08    
        75.84       75.62       75.41       75.21       75.00       74.80       74.60       74.39       74.19       73.97    
        73.75       73.52       73.27       73.00       72.70       72.37       71.96       71.47       70.82       70.00    
  28  -1000.0     -1000.0       87.49       87.44       87.34       87.20       87.02       86.80       86.55       86.25    
        85.90       85.51       85.08       84.60       84.06       83.48       82.89       82.29       81.68       81.06    
        80.43       79.81       79.21       78.64       78.12       77.68       77.31       76.97       76.67       76.39    
        76.13       75.88       75.64       75.40       75.17       74.94       74.71       74.48       74.24       74.00    
        73.74       73.48       73.20       72.89       72.56       72.18       71.76       71.25       70.67       70.00    
  29  -1000.0     -1000.0       87.47       87.42       87.32       87.18       87.00       86.79       86.54       86.24    
        85.90       85.52       85.09       84.62       84.09       83.52       82.95       82.37       81.79       81.21    
        80.64       80.07       79.52       78.99       78.51       78.08       77.69       77.33       77.01       76.70    
        76.40       76.12       75.85       75.59       75.33       75.07       74.82       74.56       74.30       74.03    
        73.75       73.46       73.14       72.81       72.45       72.06       71.62       71.13       70.58       70.00    
  30  -1000.0     -1000.0       87.45       87.40       87.29       87.14       86.97       86.76       86.52       86.23    
        85.90       85.53       85.10       84.63       84.12       83.56       83.00       82.45       81.90       81.36    
        80.83       80.31       79.80       79.31       78.85       78.43       78.03       77.66       77.32       76.98    
        76.66       76.35       76.05       75.77       75.49       75.21       74.93       74.65       74.37       74.07    
        73.77       73.45       73.11       72.76       72.38       71.97       71.52       71.05       70.53       70.00    
  31  -1000.0     -1000.0       87.44       87.39       87.27       87.08       86.92       86.73       86.50       86.22    
        85.90       85.53       85.11       84.65       84.14       83.59       83.05       82.52       82.00       81.49    
        81.01       80.53       80.06       79.60       79.16       78.74       78.35       77.97       77.61       77.25    
        76.90       76.57       76.25       75.94       75.64       75.34       75.05       74.75       74.44       74.12    
        73.80       73.46       73.10       72.73       72.33       71.91       71.47       71.00       70.51       70.00    
  32  -1000.0     -1000.0     -1000.0     -1000.0     -1000.0       86.95       86.85       86.69       86.48       86.21    
        85.89       85.53       85.12       84.66       84.16       83.62       83.09       82.57       82.08       81.60    
        81.15       80.70       80.26       79.83       79.41       79.00       78.61       78.23       77.86       77.49    
        77.12       76.77       76.43       76.11       75.79       75.48       75.16       74.84       74.52       74.19    
        73.84       73.48       73.10       72.71       72.30       71.88       71.43       70.97       70.49       70.00    
  33  -1000.0     -1000.0     -1000.0     -1000.0     -1000.0       86.88       86.80       86.66       86.46       86.20    
        85.89       85.53       85.12       84.66       84.16       83.62       83.11       82.61       82.14       81.69    
        81.26       80.84       80.42       80.01       79.61       79.22       78.83       78.45       78.07       77.69    
        77.31       76.95       76.60       76.26       75.93       75.61       75.28       74.95       74.61       74.26    
        73.89       73.52       73.12       72.72       72.29       71.86       71.41       70.95       70.48       70.00    
  34  -1000.0     -1000.0     -1000.0     -1000.0     -1000.0       86.83       86.77       86.64       86.45       86.20    
        85.89       85.53       85.11       84.65       84.14       83.61       83.10       82.62       82.16       81.74    
        81.34       80.94       80.55       80.15       79.77       79.38       79.01       78.63       78.25       77.87    
        77.48       77.11       76.75       76.41       76.07       75.74       75.40       75.06       74.71       74.34    
        73.96       73.57       73.15       72.73       72.29       71.85       71.39       70.93       70.47       70.00    
  35  -1000.0     -1000.0     -1000.0     -1000.0     -1000.0       86.81       86.75       86.63       86.45       86.21    
        85.90       85.54       85.11       84.63       84.11       83.57       83.07       82.60       82.16       81.76    
        81.38       81.01       80.63       80.26       79.89       79.52       79.15       78.78       78.40       78.02    
        77.63       77.26       76.90       76.55       76.21       75.87       75.52       75.18       74.82       74.44    
        74.04       73.63       73.20       72.75       72.30       71.84       71.38       70.92       70.46       70.00    
  36  -1000.0     -1000.0     -1000.0     -1000.0     -1000.0       86.80       86.74       86.63       86.46       86.23    
        85.93       85.56       85.10       84.59       84.04       83.50       83.00       82.54       82.13       81.75    
        81.39       81.04       80.68       80.33       79.97       79.61       79.26       78.89       78.52       78.15    
        77.76       77.39       77.03       76.68       76.34       76.00       75.65       75.30       74.94       74.55    
        74.14       73.70       73.25       72.78       72.31       71.84       71.37       70.91       70.45       70.00    
  37  -1000.0     -1000.0     -1000.0     -1000.0     -1000.0       86.80       86.75       86.65       86.50       86.28    
        85.99       85.61       85.10       84.54       83.93       83.36       82.88       82.45       82.06       81.70    
        81.37       81.04       80.71       80.37       80.02       79.68       79.33       78.98       78.62       78.25    
        77.87       77.50       77.15       76.80       76.46       76.12       75.79       75.44       75.08       74.69    
        74.27       73.80       73.31       72.81       72.32       71.83       71.35       70.88       70.44       70.00    
  38  -1000.0     -1000.0     -1000.0     -1000.0     -1000.0       86.80       86.76       86.67       86.54       86.36    
        86.09       85.72       85.12       84.48       83.73       83.15       82.70       82.31       81.95       81.63    
        81.33       81.01       80.70       80.37       80.05       79.72       79.38       79.04       78.70       78.34    
        77.96       77.61       77.26       76.92       76.58       76.25       75.93       75.59       75.25       74.87    
        74.43       73.90       73.37       72.84       72.32       71.81       71.30       70.84       70.41       70.00    
  39  -1000.0     -1000.0     -1000.0     -1000.0     -1000.0     -1000.0       86.76       86.70       86.60       86.46    
        86.26       86.02     -1000.0     -1000.0       83.29       82.81       82.45       82.13       81.82       81.53    
        81.25       80.96       80.66       80.35       80.04       79.72       79.41       79.08       78.75       78.40    
        78.04       77.69       77.36       77.02       76.70       76.38       76.07       75.76       75.44       75.11    
        74.69       74.00       73.41       72.86       72.32       71.78       71.19       70.77       70.37       70.00    
  40  -1000.0     -1000.0     -1000.0     -1000.0     -1000.0     -1000.0       86.76       86.73       86.66       86.56    
        86.44     -1000.0     -1000.0     -1000.0     -1000.0       82.34       82.16       81.93       81.68       81.42    
        81.16       80.89       80.60       80.30       80.01       79.70       79.40       79.09       78.78       78.45    
        78.11       77.77       77.44       77.12       76.80       76.50       76.21       75.92       75.66       75.41    
        75.22     -1000.0     -1000.0     -1000.0     -1000.0     -1000.0       70.93       70.67       70.30       70.00    
  41  -1000.0     -1000.0     -1000.0     -1000.0     -1000.0     -1000.0     -1000.0       86.74       86.70       86.65    
      -1000.0     -1000.0     -1000.0     -1000.0     -1000.0       82.04       81.93       81.75       81.54       81.31    
        81.06       80.79       80.51       80.23       79.94       79.65       79.37       79.08       78.78       78.48    
        78.17       77.85       77.53       77.21       76.90       76.61       76.33       76.08       75.85       75.67    
        75.55     -1000.0     -1000.0     -1000.0     -1000.0     -1000.0     -1000.0     -1000.0       70.15       70.00    
  42  -1000.0     -1000.0     -1000.0     -1000.0     -1000.0     -1000.0     -1000.0     -1000.0     -1000.0     -1000.0    
      -1000.0     -1000.0     -1000.0     -1000.0     -1000.0       81.84       81.76       81.61       81.43       81.21    
        80.97       80.70       80.43       80.15       79.87       79.60       79.34       79.07       78.80       78.52    
        78.23       77.92       77.60       77.28       76.98       76.69       76.43       76.20       76.00       75.85    
        75.77     -1000.0     -1000.0     -1000.0     -1000.0     -1000.0     -1000.0     -1000.0     -1000.0     -1000.0    
  43  -1000.0     -1000.0     -1000.0     -1000.0     -1000.0     -1000.0     -1000.0     -1000.0     -1000.0     -1000.0    
      -1000.0     -1000.0     -1000.0     -1000.0     -1000.0       81.74       81.64       81.51       81.34       81.14    
        80.90       80.63       80.34       80.07       79.80       79.55       79.30       79.06       78.82       78.57    
        78.30       78.01       77.67       77.34       77.04       76.76       76.50       76.28       76.10       75.97    
        75.90     -1000.0     -1000.0     -1000.0     -1000.0     -1000.0     -1000.0     -1000.0     -1000.0     -1000.0    
  44  -1000.0     -1000.0     -1000.0     -1000.0     -1000.0     -1000.0     -1000.0     -1000.0     -1000.0     -1000.0    
      -1000.0     -1000.0     -1000.0     -1000.0     -1000.0     -1000.0       81.55       81.45       81.30       81.10    
        80.86       80.58       80.24       79.98       79.72       79.49       79.26       79.05       78.84       78.63    
        78.41       78.14       77.73       77.38       77.07       76.79       76.54       76.32       76.15       76.03    
        75.97     -1000.0     -1000.0     -1000.0     -1000.0     -1000.0     -1000.0     -1000.0     -1000.0     -1000.0    
  45  -1000.0     -1000.0     -1000.0     -1000.0     -1000.0     -1000.0     -1000.0     -1000.0     -1000.0     -1000.0    
      -1000.0     -1000.0     -1000.0     -1000.0     -1000.0     -1000.0     -1000.0     -1000.0     -1000.0     -1000.0    
      -1000.0     -1000.0       80.07       79.89       79.62       79.40       79.22       79.04       78.87       78.70    
        78.55       78.42     -1000.0     -1000.0     -1000.0     -1000.0     -1000.0     -1000.0     -1000.0     -1000.0    
      -1000.0     -1000.0     -1000.0     -1000.0     -1000.0     -1000.0     -1000.0     -1000.0     -1000.0     -1000.0    
  46  -1000.0     -1000.0     -1000.0     -1000.0     -1000.0     -1000.0     -1000.0     -1000.0     -1000.0     -1000.0    
      -1000.0     -1000.0     -1000.0     -1000.0     -1000.0     -1000.0     -1000.0     -1000.0     -1000.0     -1000.0    
      -1000.0     -1000.0     -1000.0     -1000.0       79.46       79.30       79.16       79.02       78.89       78.77    
        78.66       78.58     -1000.0     -1000.0     -1000.0     -1000.0     -1000.0     -1000.0     -1000.0     -1000.0    
      -1000.0     -1000.0     -1000.0     -1000.0     -1000.0     -1000.0     -1000.0     -1000.0     -1000.0     -1000.0    
  47  -1000.0     -1000.0     -1000.0     -1000.0     -1000.0     -1000.0     -1000.0     -1000.0     -1000.0     -1000.0    
      -1000.0     -1000.0     -1000.0     -1000.0     -1000.0     -1000.0     -1000.0     -1000.0     -1000.0     -1000.0    
      -1000.0     -1000.0     -1000.0     -1000.0     -1000.0       79.16       79.10       79.01       78.91       78.82    
        78.73       78.65     -1000.0     -1000.0     -1000.0     -1000.0     -1000.0     -1000.0     -1000.0     -1000.0    
      -1000.0     -1000.0     -1000.0     -1000.0     -1000.0     -1000.0     -1000.0     -1000.0     -1000.0     -1000.0    
  48  -1000.0     -1000.0     -1000.0     -1000.0     -1000.0     -1000.0     -1000.0     -1000.0     -1000.0     -1000.0    
      -1000.0     -1000.0     -1000.0     -1000.0     -1000.0     -1000.0     -1000.0     -1000.0     -1000.0     -1000.0    
      -1000.0     -1000.0     -1000.0     -1000.0     -1000.0       79.09       79.05       78.99       78.93       78.86    
        78.79     -1000.0     -1000.0     -1000.0     -1000.0     -1000.0     -1000.0     -1000.0     -1000.0     -1000.0    
      -1000.0     -1000.0     -1000.0     -1000.0     -1000.0     -1000.0     -1000.0     -1000.0     -1000.0     -1000.0    
  49  -1000.0     -1000.0     -1000.0     -1000.0     -1000.0     -1000.0     -1000.0     -1000.0     -1000.0     -1000.0    
      -1000.0     -1000.0     -1000.0     -1000.0     -1000.0     -1000.0     -1000.0     -1000.0     -1000.0     -1000.0    
      -1000.0     -1000.0     -1000.0     -1000.0     -1000.0       79.07       79.04       78.99       78.94       78.90    
      -1000.0     -1000.0     -1000.0     -1000.0     -1000.0     -1000.0     -1000.0     -1000.0     -1000.0     -1000.0    
      -1000.0     -1000.0     -1000.0     -1000.0     -1000.0     -1000.0     -1000.0     -1000.0     -1000.0     -1000.0    
  50  -1000.0     -1000.0     -1000.0     -1000.0     -1000.0     -1000.0     -1000.0     -1000.0     -1000.0     -1000.0    
      -1000.0     -1000.0     -1000.0     -1000.0     -1000.0     -1000.0     -1000.0     -1000.0     -1000.0     -1000.0    
      -1000.0     -1000.0     -1000.0     -1000.0     -1000.0     -1000.0     -1000.0     -1000.0     -1000.0     -1000.0    
      -1000.0     -1000.0     -1000.0     -1000.0     -1000.0     -1000.0     -1000.0     -1000.0     -1000.0     -1000.0    
      -1000.0     -1000.0     -1000.0     -1000.0     -1000.0     -1000.0     -1000.0     -1000.0     -1000.0     -1000.0    

 HEAD WILL BE SAVED ON UNIT   51 AT END OF TIME STEP    1, STRESS PERIOD    1
1
  VOLUMETRIC BUDGET FOR ENTIRE MODEL AT END OF TIME STEP    1, STRESS PERIOD   1
  ------------------------------------------------------------------------------

     CUMULATIVE VOLUMES      L**3       RATES FOR THIS TIME STEP      L**3/T
     ------------------                 ------------------------

           IN:                                      IN:
           ---                                      ---
             STORAGE =           0.0000               STORAGE =           0.0000
       CONSTANT HEAD =           0.0000         CONSTANT HEAD =           0.0000
                  ET =           0.0000                    ET =           0.0000
            RECHARGE =       16620.0000              RECHARGE =       16620.0000
      STREAM LEAKAGE =        3267.6621        STREAM LEAKAGE =        3267.6621

            TOTAL IN =       19887.6621              TOTAL IN =       19887.6621

          OUT:                                     OUT:
          ----                                     ----
             STORAGE =           0.0000               STORAGE =           0.0000
       CONSTANT HEAD =       11653.9229         CONSTANT HEAD =       11653.9229
                  ET =        1302.4542                    ET =        1302.4542
            RECHARGE =           0.0000              RECHARGE =           0.0000
      STREAM LEAKAGE =        6931.2900        STREAM LEAKAGE =        6931.2900

           TOTAL OUT =       19887.6680             TOTAL OUT =       19887.6680

            IN - OUT =      -5.8594E-03              IN - OUT =      -5.8594E-03

 PERCENT DISCREPANCY =          -0.00     PERCENT DISCREPANCY =          -0.00






         TIME SUMMARY AT END OF TIME STEP    1 IN STRESS PERIOD    1
                    SECONDS     MINUTES      HOURS       DAYS        YEARS
                    -----------------------------------------------------------
   TIME STEP LENGTH  86400.      1440.0      24.000      1.0000     2.73785E-03
 STRESS PERIOD TIME  86400.      1440.0      24.000      1.0000     2.73785E-03
         TOTAL TIME  86400.      1440.0      24.000      1.0000     2.73785E-03
1

 Run end date and time (yyyy/mm/dd hh:mm:ss): 2021/12/01 18:20:37
 Elapsed run time:  0.100 Seconds

