                                  MODFLOW-2005     
      U.S. GEOLOGICAL SURVEY MODULAR FINITE-DIFFERENCE GROUND-WATER FLOW MODEL
                            VERSION 1.12.00 2/3/2017

 LIST FILE: stream.list
                         UNIT    2

 OPENING stream.dis
 FILE TYPE:DIS   UNIT   11   STATUS:OLD    
 FORMAT:FORMATTED              ACCESS:SEQUENTIAL          

 OPENING stream.bas
 FILE TYPE:BAS6   UNIT   13   STATUS:OLD    
 FORMAT:FORMATTED              ACCESS:SEQUENTIAL          

 OPENING stream.lpf
 FILE TYPE:LPF   UNIT   15   STATUS:OLD    
 FORMAT:FORMATTED              ACCESS:SEQUENTIAL          

 OPENING stream.oc
 FILE TYPE:OC   UNIT   14   STATUS:OLD    
 FORMAT:FORMATTED              ACCESS:SEQUENTIAL          

 OPENING stream.pcg
 FILE TYPE:PCG   UNIT   27   STATUS:OLD    
 FORMAT:FORMATTED              ACCESS:SEQUENTIAL          

 OPENING stream.rch
 FILE TYPE:RCH   UNIT   19   STATUS:OLD    
 FORMAT:FORMATTED              ACCESS:SEQUENTIAL          

 OPENING stream.str
 FILE TYPE:STR   UNIT  118   STATUS:OLD    
 FORMAT:FORMATTED              ACCESS:SEQUENTIAL          

 OPENING stream.cbc
 FILE TYPE:DATA(BINARY)   UNIT   53   STATUS:REPLACE
 FORMAT:BINARY                 ACCESS:SEQUENTIAL          

 OPENING stream.hds
 FILE TYPE:DATA(BINARY)   UNIT   51   STATUS:REPLACE
 FORMAT:BINARY                 ACCESS:SEQUENTIAL          

 BAS -- BASIC PACKAGE, VERSION 7, 5/2/2005 INPUT READ FROM UNIT   13
 
 MODFLOW was compiled using mixed precision
 Precision of REAL variables:           6
 Precision of DOUBLE PRECISION variables:          15

 DISCRETIZATION INPUT DATA READ FROM UNIT   11
 # DIS package for  MODFLOW-2005, generated by Flopy.
    2 LAYERS        50 ROWS        50 COLUMNS
    1 STRESS PERIOD(S) IN SIMULATION
 MODEL TIME UNIT IS DAYS
 MODEL LENGTH UNIT IS METERS
  Confining bed flag for each layer:
   0   0

                     DELR =   1000.00    

                     DELC =   1000.00    



           TOP ELEVATION OF LAYER 1
 READING ON UNIT   11 WITH FORMAT: (50E15.6)           



             MODEL LAYER BOTTOM EL. FOR LAYER   1
 READING ON UNIT   11 WITH FORMAT: (50E15.6)           



             MODEL LAYER BOTTOM EL. FOR LAYER   2
 READING ON UNIT   11 WITH FORMAT: (50E15.6)           


 STRESS PERIOD     LENGTH       TIME STEPS     MULTIPLIER FOR DELT    SS FLAG
 ----------------------------------------------------------------------------
        1         1.000000          1                    1.000         SS

 STEADY-STATE SIMULATION



 
 # BAS6 package for  MODFLOW-2005, generated by Flopy.                           
 THE FREE FORMAT OPTION HAS BEEN SELECTED



                     BOUNDARY ARRAY FOR LAYER   1
 READING ON UNIT   13 WITH FORMAT: (50I10)             



                     BOUNDARY ARRAY FOR LAYER   2
 READING ON UNIT   13 WITH FORMAT: (50I10)             

 AQUIFER HEAD WILL BE SET TO  -999.99     AT ALL NO-FLOW NODES (IBOUND=0).



                       INITIAL HEAD FOR LAYER   1
 READING ON UNIT   13 WITH FORMAT: (50E15.6)           



                       INITIAL HEAD FOR LAYER   2
 READING ON UNIT   13 WITH FORMAT: (50E15.6)           
 # OC package for  MODFLOW-2005, generated by Flopy.

 OUTPUT CONTROL IS SPECIFIED ONLY AT TIME STEPS FOR WHICH OUTPUT IS DESIRED
 COMPACT CELL-BY-CELL BUDGET FILES WILL BE WRITTEN
 AUXILIARY DATA WILL BE SAVED IN CELL-BY-CELL BUDGET FILES
 HEAD PRINT FORMAT CODE IS   0    DRAWDOWN PRINT FORMAT CODE IS   0
 HEADS WILL BE SAVED ON UNIT   51    DRAWDOWNS WILL BE SAVED ON UNIT    0

 LPF -- LAYER-PROPERTY FLOW PACKAGE, VERSION 7, 5/2/2005
         INPUT READ FROM UNIT   15
 # LPF package for  MODFLOW-2005, generated by Flopy.
 CELL-BY-CELL FLOWS WILL BE SAVED ON UNIT   53
 HEAD AT CELLS THAT CONVERT TO DRY= -1.00000E+30
 No named parameters

   LAYER FLAGS:
 LAYER       LAYTYP        LAYAVG         CHANI        LAYVKA        LAYWET
 ---------------------------------------------------------------------------
    1             1             0     0.000E+00             0             0
    2             1             0     0.000E+00             0             0

   INTERPRETATION OF LAYER FLAGS:
                        INTERBLOCK     HORIZONTAL    DATA IN
         LAYER TYPE   TRANSMISSIVITY   ANISOTROPY   ARRAY VKA   WETTABILITY
 LAYER      (LAYTYP)      (LAYAVG)       (CHANI)      (LAYVKA)      (LAYWET)
 ---------------------------------------------------------------------------
    1   CONVERTIBLE      HARMONIC      VARIABLE    VERTICAL K  NON-WETTABLE
    2   CONVERTIBLE      HARMONIC      VARIABLE    VERTICAL K  NON-WETTABLE

 WETTING CAPABILITY IS NOT ACTIVE IN ANY LAYER

    HYD. COND. ALONG ROWS =   10.0000     FOR LAYER   1

   HORIZ. ANI. (COL./ROW) =   1.00000     FOR LAYER   1

      VERTICAL HYD. COND. =   10.0000     FOR LAYER   1

    HYD. COND. ALONG ROWS =   10.0000     FOR LAYER   2

   HORIZ. ANI. (COL./ROW) =   1.00000     FOR LAYER   2

      VERTICAL HYD. COND. =   10.0000     FOR LAYER   2

 RCH -- RECHARGE PACKAGE, VERSION 7, 5/2/2005 INPUT READ FROM UNIT   19
 # RCH package for  MODFLOW-2005, generated by Flopy.
 No named parameters
 OPTION 3 -- RECHARGE TO HIGHEST ACTIVE NODE IN EACH VERTICAL COLUMN


     0 Recharge parameters

 STR -- STREAM PACKAGE, VERSION 7, 5/2/2005 INPUT READ FROM UNIT  118
 # STR package for  MODFLOW-2005, generated by Flopy.
 No named parameters
 MAXIMUM OF     44 ACTIVE STREAM NODES AT ONE TIME
 NUMBER OF STREAM SEGMENTS IS      1
 NUMBER OF STREAM TRIBUTARIES IS      0
 CELL BUDGETS WILL BE SAVED ON UNITS   53 AND   53


     0 Stream parameters

 PCG -- CONJUGATE-GRADIENT SOLUTION PACKAGE, VERSION 7, 5/2/2005
 # PCG package for  MODFLOW-2005, generated by Flopy.
 MAXIMUM OF     50 CALLS OF SOLUTION ROUTINE
 MAXIMUM OF     30 INTERNAL ITERATIONS PER CALL TO SOLUTION ROUTINE
 MATRIX PRECONDITIONING TYPE :    1



                                    SOLUTION BY THE CONJUGATE-GRADIENT METHOD
                                   -------------------------------------------
                    MAXIMUM NUMBER OF CALLS TO PCG ROUTINE =       50
                        MAXIMUM ITERATIONS PER CALL TO PCG =       30
                               MATRIX PRECONDITIONING TYPE =        1
        RELAXATION FACTOR (ONLY USED WITH PRECOND. TYPE 1) =    0.10000E+01
 PARAMETER OF POLYNOMIAL PRECOND. = 2 (2) OR IS CALCULATED :        0
                         HEAD CHANGE CRITERION FOR CLOSURE =    0.10000E-04
                     RESIDUAL CHANGE CRITERION FOR CLOSURE =    0.10000E-04
            PCG HEAD AND RESIDUAL CHANGE PRINTOUT INTERVAL =      999
     PRINTING FROM SOLVER IS LIMITED(1) OR SUPPRESSED (>1) =        3
                            STEADY-STATE DAMPING PARAMETER =    0.10000E+01
                               TRANSIENT DAMPING PARAMETER =    0.10000E+01
1
                            STRESS PERIOD NO.    1, LENGTH =   1.000000    
                            -----------------------------------------------

                              NUMBER OF TIME STEPS =     1

                               MULTIPLIER FOR DELT =     1.000

                            INITIAL TIME STEP SIZE =   1.000000    



                           RECHARGE
 READING ON UNIT   19 WITH FORMAT: (50E15.6)           

     44 STREAM REACHES
 
 SOLVING FOR HEAD 

 OUTPUT CONTROL FOR STRESS PERIOD    1   TIME STEP    1
    PRINT HEAD FOR ALL LAYERS
    PRINT BUDGET
    SAVE HEAD FOR ALL LAYERS
    SAVE BUDGET
 UBDSV2 SAVING "   CONSTANT HEAD" ON UNIT  53 AT TIME STEP  1, STRESS PERIOD   1
 UBDSV1 SAVING "FLOW RIGHT FACE " ON UNIT  53 AT TIME STEP  1, STRESS PERIOD   1
 UBDSV1 SAVING "FLOW FRONT FACE " ON UNIT  53 AT TIME STEP  1, STRESS PERIOD   1
 UBDSV1 SAVING "FLOW LOWER FACE " ON UNIT  53 AT TIME STEP  1, STRESS PERIOD   1
 UBDSV4 SAVING "  STREAM LEAKAGE" ON UNIT  53 AT TIME STEP  1, STRESS PERIOD   1
 UBDSV4 SAVING "STREAM FLOW OUT " ON UNIT  53 AT TIME STEP  1, STRESS PERIOD   1
1
              HEAD IN LAYER   1 AT END OF TIME STEP   1 IN STRESS PERIOD    1
  ---------------------------------------------------------------------------

            1           2           3           4           5           6           7           8           9          10
           11          12          13          14          15          16          17          18          19          20
           21          22          23          24          25          26          27          28          29          30
           31          32          33          34          35          36          37          38          39          40
           41          42          43          44          45          46          47          48          49          50
 ........................................................................................................................
   1  -1000.0     -1000.0     -1000.0     -1000.0     -1000.0     -1000.0     -1000.0     -1000.0     -1000.0     -1000.0    
      -1000.0     -1000.0     -1000.0     -1000.0     -1000.0     -1000.0     -1000.0     -1000.0     -1000.0     -1000.0    
      -1000.0     -1000.0     -1000.0     -1000.0     -1000.0     -1000.0     -1000.0     -1000.0     -1000.0     -1000.0    
      -1000.0     -1000.0     -1000.0     -1000.0     -1000.0     -1000.0     -1000.0     -1000.0     -1000.0     -1000.0    
      -1000.0     -1000.0     -1000.0     -1000.0     -1000.0     -1000.0     -1000.0     -1000.0     -1000.0     -1000.0    
   2  -1000.0     -1000.0     -1000.0     -1000.0     -1000.0     -1000.0     -1000.0     -1000.0     -1000.0     -1000.0    
      -1000.0     -1000.0     -1000.0     -1000.0     -1000.0     -1000.0     -1000.0     -1000.0     -1000.0     -1000.0    
      -1000.0     -1000.0     -1000.0       78.51       78.42       78.27       78.11       77.92       77.74       77.55    
        77.36       77.20       77.06       76.97     -1000.0     -1000.0     -1000.0     -1000.0     -1000.0     -1000.0    
      -1000.0     -1000.0     -1000.0     -1000.0     -1000.0     -1000.0     -1000.0     -1000.0     -1000.0     -1000.0    
   3  -1000.0     -1000.0     -1000.0     -1000.0     -1000.0     -1000.0     -1000.0     -1000.0     -1000.0     -1000.0    
      -1000.0     -1000.0     -1000.0     -1000.0     -1000.0     -1000.0     -1000.0     -1000.0     -1000.0     -1000.0    
      -1000.0     -1000.0       78.73       78.60       78.46       78.30       78.12       77.93       77.73       77.54    
        77.35       77.17       77.01       76.87       76.75     -1000.0     -1000.0     -1000.0     -1000.0     -1000.0    
      -1000.0     -1000.0     -1000.0     -1000.0     -1000.0     -1000.0     -1000.0     -1000.0     -1000.0     -1000.0    
   4  -1000.0     -1000.0     -1000.0     -1000.0     -1000.0     -1000.0     -1000.0     -1000.0     -1000.0     -1000.0    
      -1000.0     -1000.0     -1000.0     -1000.0     -1000.0     -1000.0     -1000.0     -1000.0     -1000.0     -1000.0    
      -1000.0     -1000.0       78.85       78.71       78.53       78.34       78.15       77.94       77.73       77.53    
        77.32       77.13       76.94       76.77       76.63     -1000.0     -1000.0     -1000.0     -1000.0     -1000.0    
      -1000.0     -1000.0     -1000.0     -1000.0     -1000.0     -1000.0     -1000.0     -1000.0     -1000.0     -1000.0    
   5  -1000.0     -1000.0     -1000.0     -1000.0     -1000.0     -1000.0     -1000.0     -1000.0     -1000.0     -1000.0    
      -1000.0     -1000.0     -1000.0     -1000.0     -1000.0     -1000.0     -1000.0       80.44       80.31       80.10    
        79.83       79.50       79.11       78.85       78.62       78.40       78.18       77.95       77.73       77.51    
        77.29       77.07       76.85       76.63       76.37       75.97       75.63       75.32       75.04       74.77    
        74.53       74.32       74.15       74.04     -1000.0     -1000.0     -1000.0     -1000.0     -1000.0     -1000.0    
   6  -1000.0     -1000.0     -1000.0     -1000.0     -1000.0     -1000.0     -1000.0     -1000.0     -1000.0     -1000.0    
      -1000.0     -1000.0     -1000.0     -1000.0     -1000.0     -1000.0     -1000.0       80.56       80.39       80.16    
        79.88       79.57       79.24       78.96       78.70       78.45       78.20       77.96       77.73       77.49    
        77.25       77.01       76.77       76.52       76.24       75.92       75.60       75.30       75.01       74.75    
        74.50       74.28       74.08       73.93       73.79     -1000.0     -1000.0     -1000.0     -1000.0     -1000.0    
   7  -1000.0     -1000.0     -1000.0     -1000.0     -1000.0     -1000.0     -1000.0     -1000.0     -1000.0     -1000.0    
      -1000.0     -1000.0     -1000.0       82.10       81.94       81.65       81.30       80.86       80.55       80.26    
        79.96       79.65       79.34       79.04       78.76       78.49       78.23       77.97       77.72       77.47    
        77.21       76.96       76.70       76.43       76.15       75.85       75.55       75.26       74.97       74.70    
        74.45       74.21       73.99       73.80       73.65     -1000.0     -1000.0     -1000.0     -1000.0     -1000.0    
   8  -1000.0     -1000.0     -1000.0     -1000.0     -1000.0     -1000.0     -1000.0     -1000.0     -1000.0     -1000.0    
      -1000.0     -1000.0       82.37       82.22       82.01       81.72       81.38       81.02       80.68       80.36    
        80.04       79.73       79.41       79.11       78.81       78.53       78.25       77.98       77.71       77.44    
        77.18       76.91       76.64       76.36       76.08       75.79       75.49       75.20       74.92       74.64    
        74.37       74.11       73.87       73.62       73.36       72.98       72.73       72.58     -1000.0     -1000.0    
   9  -1000.0     -1000.0     -1000.0     -1000.0     -1000.0     -1000.0     -1000.0     -1000.0     -1000.0     -1000.0    
      -1000.0     -1000.0       82.46       82.34       82.13       81.82       81.49       81.14       80.80       80.46    
        80.13       79.80       79.48       79.16       78.86       78.56       78.27       77.98       77.70       77.42    
        77.14       76.87       76.59       76.30       76.02       75.72       75.43       75.14       74.85       74.57    
        74.29       74.01       73.74       73.46       73.18       72.87       72.61       72.44     -1000.0     -1000.0    
  10  -1000.0     -1000.0     -1000.0     -1000.0     -1000.0     -1000.0     -1000.0     -1000.0     -1000.0     -1000.0    
      -1000.0     -1000.0       82.64       82.51       82.28       81.96       81.62       81.26       80.91       80.56    
        80.21       79.87       79.54       79.21       78.89       78.58       78.27       77.98       77.68       77.39    
        77.11       76.82       76.53       76.24       75.95       75.66       75.37       75.07       74.78       74.49    
        74.20       73.91       73.62       73.32       73.01       72.70       72.40       72.13       71.83     -1000.0    
  11  -1000.0     -1000.0     -1000.0     -1000.0     -1000.0     -1000.0     -1000.0     -1000.0     -1000.0     -1000.0    
      -1000.0     -1000.0       82.89       82.73       82.46       82.12       81.75       81.38       81.01       80.65    
        80.29       79.93       79.58       79.24       78.91       78.59       78.27       77.97       77.66       77.36    
        77.07       76.77       76.48       76.19       75.89       75.60       75.30       75.00       74.71       74.41    
        74.11       73.80       73.50       73.18       72.85       72.51       72.17       71.83       71.53     -1000.0    
  12  -1000.0     -1000.0     -1000.0     -1000.0     -1000.0     -1000.0     -1000.0     -1000.0     -1000.0     -1000.0    
      -1000.0     -1000.0       83.25       83.01       82.68       82.29       81.89       81.50       81.11       80.73    
        80.35       79.98       79.62       79.27       78.93       78.59       78.27       77.95       77.64       77.33    
        77.03       76.73       76.43       76.13       75.83       75.53       75.24       74.94       74.63       74.33    
        74.02       73.70       73.38       73.05       72.70       72.33       71.94       71.50       70.94       70.00    
  13  -1000.0     -1000.0     -1000.0     -1000.0     -1000.0       86.48       86.34       86.12       85.83       85.47    
        85.03       84.49       83.80       83.33       82.91       82.46       82.03       81.61       81.20       80.80    
        80.41       80.03       79.65       79.29       78.93       78.59       78.25       77.92       77.60       77.29    
        76.98       76.67       76.37       76.07       75.77       75.47       75.17       74.87       74.56       74.25    
        73.93       73.61       73.28       72.93       72.56       72.17       71.75       71.27       70.70       70.00    
  14  -1000.0     -1000.0     -1000.0       86.83       86.74       86.56       86.38       86.15       85.86       85.50    
        85.08       84.60       84.06       83.57       83.10       82.62       82.16       81.71       81.28       80.86    
        80.45       80.06       79.67       79.29       78.93       78.57       78.23       77.89       77.56       77.24    
        76.93       76.62       76.31       76.01       75.71       75.41       75.11       74.80       74.49       74.18    
        73.86       73.53       73.18       72.83       72.45       72.05       71.61       71.13       70.59       70.00    
  15  -1000.0     -1000.0       86.95       86.88       86.77       86.62       86.42       86.18       85.89       85.55    
        85.15       84.71       84.22       83.74       83.25       82.74       82.26       81.80       81.35       80.91    
        80.49       80.07       79.67       79.29       78.91       78.54       78.19       77.85       77.51       77.19    
        76.87       76.56       76.25       75.95       75.65       75.34       75.04       74.74       74.43       74.11    
        73.79       73.45       73.11       72.74       72.36       71.95       71.51       71.04       70.54       70.00    
  16  -1000.0     -1000.0       86.97       86.91       86.81       86.66       86.46       86.22       85.94       85.60    
        85.22       84.80       84.34       83.86       83.36       82.84       82.35       81.86       81.40       80.95    
        80.51       80.08       79.67       79.26       78.88       78.50       78.14       77.79       77.45       77.12    
        76.80       76.49       76.18       75.88       75.58       75.28       74.98       74.67       74.37       74.05    
        73.73       73.39       73.04       72.67       72.29       71.88       71.45       70.99       70.50       70.00    
  17  -1000.0     -1000.0       87.01       86.95       86.85       86.70       86.50       86.26       85.98       85.65    
        85.28       84.87       84.43       83.95       83.45       82.92       82.41       81.91       81.43       80.96    
        80.51       80.07       79.64       79.23       78.83       78.45       78.08       77.72       77.38       77.05    
        76.73       76.42       76.11       75.81       75.51       75.22       74.92       74.62       74.31       74.00    
        73.67       73.34       72.99       72.63       72.24       71.83       71.40       70.95       70.48       70.00    
  18  -1000.0     -1000.0       87.05       86.99       86.88       86.73       86.54       86.30       86.02       85.70    
        85.33       84.93       84.49       84.02       83.52       82.98       82.46       81.95       81.45       80.97    
        80.50       80.04       79.60       79.18       78.77       78.38       78.00       77.64       77.30       76.97    
        76.65       76.34       76.04       75.74       75.44       75.15       74.86       74.56       74.26       73.95    
        73.63       73.30       72.96       72.59       72.21       71.81       71.38       70.94       70.47       70.00    
  19  -1000.0       87.17       87.11       87.03       86.92       86.76       86.57       86.33       86.06       85.74    
        85.38       84.98       84.54       84.07       83.56       83.02       82.48       81.96       81.45       80.95    
        80.47       80.00       79.54       79.10       78.68       78.28       77.90       77.54       77.20       76.87    
        76.55       76.25       75.95       75.66       75.37       75.09       74.80       74.51       74.22       73.92    
        73.60       73.28       72.94       72.58       72.20       71.80       71.38       70.93       70.47       70.00    
  20  -1000.0       87.19       87.14       87.06       86.94       86.79       86.60       86.36       86.08       85.77    
        85.41       85.01       84.58       84.11       83.59       83.04       82.50       81.96       81.44       80.92    
        80.42       79.93       79.46       79.01       78.58       78.17       77.79       77.43       77.08       76.76    
        76.45       76.15       75.86       75.58       75.30       75.02       74.75       74.47       74.18       73.89    
        73.58       73.27       72.94       72.58       72.21       71.81       71.39       70.94       70.48       70.00    
  21  -1000.0       87.20       87.16       87.08       86.96       86.81       86.62       86.38       86.11       85.79    
        85.44       85.04       84.60       84.13       83.61       83.05       82.50       81.95       81.41       80.88    
        80.36       79.85       79.36       78.89       78.45       78.03       77.65       77.29       76.95       76.63    
        76.33       76.04       75.76       75.49       75.22       74.96       74.69       74.42       74.15       73.87    
        73.58       73.27       72.95       72.61       72.24       71.85       71.42       70.97       70.49       70.00    
  22  -1000.0       87.21       87.17       87.09       86.98       86.82       86.63       86.40       86.12       85.81    
        85.45       85.06       84.62       84.14       83.62       83.05       82.49       81.93       81.37       80.82    
        80.28       79.75       79.23       78.75       78.29       77.87       77.48       77.12       76.79       76.48    
        76.19       75.92       75.65       75.39       75.14       74.89       74.64       74.39       74.13       73.86    
        73.58       73.29       72.98       72.65       72.30       71.91       71.48       71.02       70.52       70.00    
  23  -1000.0       87.21       87.17       87.10       86.98       86.83       86.63       86.40       86.13       85.82    
        85.46       85.07       84.63       84.15       83.62       83.05       82.47       81.90       81.33       80.75    
        80.18       79.62       79.08       78.57       78.09       77.66       77.28       76.93       76.61       76.32    
        76.04       75.78       75.53       75.29       75.06       74.82       74.59       74.35       74.11       73.86    
        73.60       73.33       73.04       72.73       72.38       72.00       71.58       71.10       70.57       70.00    
  24  -1000.0       87.21       87.17       87.09       86.98       86.82       86.63       86.40       86.13       85.82    
        85.47       85.07       84.63       84.15       83.62       83.04       82.45       81.87       81.27       80.68    
        80.07       79.47       78.89       78.34       77.85       77.41       77.04       76.70       76.41       76.13    
        75.88       75.64       75.41       75.19       74.97       74.75       74.54       74.32       74.10       73.87    
        73.63       73.38       73.12       72.83       72.50       72.14       71.73       71.23       70.66       70.00    
  25  -1000.0       87.20       87.16       87.08       86.97       86.82       86.63       86.40       86.13       85.82    
        85.46       85.07       84.63       84.14       83.61       83.03       82.44       81.83       81.22       80.60    
        79.95       79.30       78.67       78.07       77.53       77.10       76.75       76.44       76.17       75.93    
        75.70       75.48       75.28       75.08       74.88       74.68       74.49       74.29       74.10       73.89    
        73.68       73.45       73.21       72.95       72.66       72.33       71.94       71.45       70.81       70.00    
  26  -1000.0       87.19       87.13       87.06       86.95       86.80       86.61       86.38       86.11       85.81    
        85.46       85.06       84.62       84.14       83.60       83.02       82.42       81.81       81.17       80.54    
        79.84       79.11       78.39       77.71       77.11       76.71       76.40       76.14       75.91       75.70    
        75.50       75.32       75.13       74.96       74.79       74.61       74.44       74.27       74.10       73.92    
        73.73       73.54       73.33       73.11       72.87       72.59       72.25       71.81       71.13       70.00    
  27  -1000.0     -1000.0       87.08       87.02       86.92       86.77       86.59       86.36       86.10       85.79    
        85.44       85.05       84.61       84.13       83.59       83.01       82.42       81.82       81.21       80.58    
        79.94       79.29       78.65       78.05       77.52       77.09       76.74       76.44       76.17       75.93    
        75.70       75.48       75.28       75.08       74.88       74.69       74.49       74.30       74.10       73.89    
        73.68       73.45       73.21       72.95       72.66       72.33       71.94       71.45       70.81       70.00    
  28  -1000.0     -1000.0       87.04       86.99       86.89       86.74       86.56       86.33       86.07       85.77    
        85.42       85.03       84.60       84.12       83.59       83.01       82.42       81.84       81.24       80.64    
        80.04       79.44       78.87       78.32       77.83       77.40       77.02       76.69       76.40       76.13    
        75.88       75.64       75.41       75.19       74.98       74.76       74.55       74.33       74.11       73.88    
        73.64       73.38       73.11       72.82       72.50       72.14       71.72       71.23       70.65       70.00    
  29  -1000.0     -1000.0       87.01       86.95       86.85       86.70       86.52       86.30       86.04       85.74    
        85.40       85.02       84.58       84.10       83.58       83.00       82.43       81.85       81.28       80.71    
        80.14       79.58       79.04       78.53       78.06       77.64       77.26       76.91       76.60       76.31    
        76.04       75.79       75.54       75.30       75.07       74.84       74.60       74.36       74.12       73.87    
        73.60       73.33       73.03       72.72       72.37       71.99       71.57       71.09       70.57       70.00    
  30  -1000.0     -1000.0       86.98       86.93       86.81       86.65       86.47       86.26       86.01       85.71    
        85.38       84.99       84.56       84.09       83.56       83.00       82.43       81.87       81.31       80.76    
        80.22       79.69       79.18       78.70       78.25       77.83       77.45       77.10       76.78       76.48    
        76.19       75.92       75.66       75.41       75.16       74.91       74.66       74.40       74.14       73.87    
        73.59       73.29       72.98       72.64       72.28       71.89       71.47       71.01       70.52       70.00    
  31  -1000.0     -1000.0       86.97       86.91       86.78       86.58       86.40       86.20       85.97       85.68    
        85.35       84.97       84.54       84.07       83.55       82.98       82.42       81.87       81.33       80.80    
        80.28       79.78       79.29       78.83       78.40       77.99       77.61       77.26       76.93       76.62    
        76.33       76.05       75.78       75.51       75.25       74.98       74.72       74.45       74.17       73.88    
        73.58       73.27       72.94       72.59       72.21       71.82       71.40       70.95       70.48       70.00    
  32  -1000.0     -1000.0     -1000.0     -1000.0     -1000.0       86.42       86.31       86.15       85.92       85.65    
        85.32       84.94       84.51       84.04       83.52       82.96       82.41       81.87       81.34       80.82    
        80.32       79.84       79.38       78.93       78.51       78.12       77.75       77.40       77.07       76.75    
        76.45       76.16       75.88       75.61       75.33       75.06       74.78       74.50       74.21       73.91    
        73.59       73.26       72.92       72.55       72.17       71.77       71.35       70.91       70.46       70.00    
  33  -1000.0     -1000.0     -1000.0     -1000.0     -1000.0       86.32       86.24       86.09       85.88       85.62    
        85.29       84.92       84.49       84.01       83.48       82.92       82.37       81.84       81.33       80.83    
        80.35       79.88       79.44       79.01       78.61       78.22       77.86       77.51       77.18       76.86    
        76.56       76.27       75.98       75.70       75.42       75.14       74.85       74.56       74.26       73.94    
        73.61       73.27       72.91       72.54       72.14       71.74       71.32       70.89       70.45       70.00    
  34  -1000.0     -1000.0     -1000.0     -1000.0     -1000.0       86.26       86.19       86.06       85.86       85.60    
        85.28       84.89       84.46       83.96       83.43       82.87       82.32       81.80       81.30       80.81    
        80.35       79.91       79.48       79.07       78.68       78.30       77.94       77.60       77.28       76.96    
        76.66       76.36       76.08       75.79       75.50       75.22       74.93       74.63       74.32       73.99    
        73.65       73.29       72.92       72.53       72.13       71.72       71.30       70.87       70.44       70.00    
  35  -1000.0     -1000.0     -1000.0     -1000.0     -1000.0       86.22       86.16       86.03       85.84       85.59    
        85.27       84.88       84.43       83.92       83.36       82.79       82.24       81.73       81.24       80.78    
        80.33       79.91       79.50       79.10       78.73       78.36       78.02       77.68       77.36       77.05    
        76.75       76.45       76.16       75.88       75.59       75.30       75.01       74.71       74.39       74.06    
        73.70       73.33       72.94       72.54       72.12       71.70       71.28       70.85       70.43       70.00    
  36  -1000.0     -1000.0     -1000.0     -1000.0     -1000.0       86.20       86.14       86.03       85.85       85.60    
        85.29       84.89       84.40       83.85       83.27       82.68       82.13       81.63       81.16       80.72    
        80.30       79.89       79.50       79.12       78.76       78.41       78.07       77.75       77.43       77.13    
        76.83       76.54       76.25       75.96       75.68       75.39       75.10       74.80       74.48       74.14    
        73.77       73.38       72.97       72.55       72.12       71.69       71.26       70.84       70.42       70.00    
  37  -1000.0     -1000.0     -1000.0     -1000.0     -1000.0       86.19       86.14       86.03       85.87       85.64    
        85.33       84.92       84.39       83.78       83.13       82.51       81.98       81.50       81.06       80.64    
        80.24       79.86       79.48       79.12       78.78       78.44       78.12       77.80       77.49       77.20    
        76.90       76.62       76.33       76.05       75.77       75.48       75.20       74.90       74.58       74.24    
        73.87       73.45       73.01       72.57       72.12       71.68       71.23       70.81       70.40       70.00    
  38  -1000.0     -1000.0     -1000.0     -1000.0     -1000.0       86.19       86.14       86.05       85.91       85.71    
        85.44       85.04       84.40       83.71       82.89       82.26       81.76       81.33       80.92       80.54    
        80.17       79.81       79.46       79.11       78.78       78.46       78.15       77.84       77.55       77.26    
        76.97       76.69       76.41       76.13       75.86       75.58       75.30       75.02       74.72       74.39    
        74.00       73.53       73.06       72.59       72.12       71.65       71.19       70.77       70.38       70.00    
  39  -1000.0     -1000.0     -1000.0     -1000.0     -1000.0     -1000.0       86.13       86.07       85.97       85.82    
        85.61       85.35     -1000.0     -1000.0       82.41       81.87       81.48       81.12       80.77       80.42    
        80.08       79.75       79.42       79.09       78.77       78.47       78.17       77.88       77.59       77.31    
        77.03       76.76       76.48       76.21       75.94       75.68       75.41       75.15       74.88       74.58    
        74.22       73.62       73.09       72.60       72.11       71.62       71.09       70.70       70.34       70.00    
  40  -1000.0     -1000.0     -1000.0     -1000.0     -1000.0     -1000.0       86.14       86.10       86.02       85.92    
        85.79     -1000.0     -1000.0     -1000.0     -1000.0       81.35       81.15       80.89       80.61       80.30    
        79.99       79.68       79.37       79.06       78.76       78.46       78.18       77.90       77.63       77.36    
        77.09       76.83       76.56       76.29       76.03       75.77       75.52       75.28       75.06       74.84    
        74.68     -1000.0     -1000.0     -1000.0     -1000.0     -1000.0       70.85       70.61       70.27       70.00    
  41  -1000.0     -1000.0     -1000.0     -1000.0     -1000.0     -1000.0     -1000.0       86.10       86.06       86.02    
      -1000.0     -1000.0     -1000.0     -1000.0     -1000.0       81.01       80.89       80.70       80.46       80.19    
        79.91       79.61       79.31       79.02       78.73       78.45       78.18       77.92       77.67       77.41    
        77.15       76.89       76.63       76.36       76.11       75.86       75.63       75.41       75.22       75.06    
        74.96     -1000.0     -1000.0     -1000.0     -1000.0     -1000.0     -1000.0     -1000.0       70.14       70.00    
  42  -1000.0     -1000.0     -1000.0     -1000.0     -1000.0     -1000.0     -1000.0     -1000.0     -1000.0     -1000.0    
      -1000.0     -1000.0     -1000.0     -1000.0     -1000.0       80.80       80.70       80.54       80.34       80.10    
        79.83       79.54       79.25       78.97       78.69       78.43       78.18       77.94       77.70       77.46    
        77.22       76.96       76.69       76.43       76.17       75.93       75.71       75.51       75.34       75.22    
        75.15     -1000.0     -1000.0     -1000.0     -1000.0     -1000.0     -1000.0     -1000.0     -1000.0     -1000.0    
  43  -1000.0     -1000.0     -1000.0     -1000.0     -1000.0     -1000.0     -1000.0     -1000.0     -1000.0     -1000.0    
      -1000.0     -1000.0     -1000.0     -1000.0     -1000.0       80.69       80.57       80.43       80.25       80.02    
        79.77       79.48       79.18       78.91       78.65       78.40       78.17       77.95       77.73       77.52    
        77.29       77.04       76.76       76.48       76.22       75.98       75.77       75.58       75.43       75.32    
        75.26     -1000.0     -1000.0     -1000.0     -1000.0     -1000.0     -1000.0     -1000.0     -1000.0     -1000.0    
  44  -1000.0     -1000.0     -1000.0     -1000.0     -1000.0     -1000.0     -1000.0     -1000.0     -1000.0     -1000.0    
      -1000.0     -1000.0     -1000.0     -1000.0     -1000.0     -1000.0       80.47       80.37       80.20       79.99    
        79.73       79.44       79.09       78.83       78.58       78.35       78.15       77.95       77.76       77.58    
        77.39       77.16       76.81       76.51       76.25       76.01       75.80       75.62       75.47       75.37    
        75.31     -1000.0     -1000.0     -1000.0     -1000.0     -1000.0     -1000.0     -1000.0     -1000.0     -1000.0    
  45  -1000.0     -1000.0     -1000.0     -1000.0     -1000.0     -1000.0     -1000.0     -1000.0     -1000.0     -1000.0    
      -1000.0     -1000.0     -1000.0     -1000.0     -1000.0     -1000.0     -1000.0     -1000.0     -1000.0     -1000.0    
      -1000.0     -1000.0       78.92       78.75       78.49       78.28       78.11       77.95       77.79       77.65    
        77.51       77.40     -1000.0     -1000.0     -1000.0     -1000.0     -1000.0     -1000.0     -1000.0     -1000.0    
      -1000.0     -1000.0     -1000.0     -1000.0     -1000.0     -1000.0     -1000.0     -1000.0     -1000.0     -1000.0    
  46  -1000.0     -1000.0     -1000.0     -1000.0     -1000.0     -1000.0     -1000.0     -1000.0     -1000.0     -1000.0    
      -1000.0     -1000.0     -1000.0     -1000.0     -1000.0     -1000.0     -1000.0     -1000.0     -1000.0     -1000.0    
      -1000.0     -1000.0     -1000.0     -1000.0       78.34       78.18       78.06       77.94       77.82       77.71    
        77.61       77.54     -1000.0     -1000.0     -1000.0     -1000.0     -1000.0     -1000.0     -1000.0     -1000.0    
      -1000.0     -1000.0     -1000.0     -1000.0     -1000.0     -1000.0     -1000.0     -1000.0     -1000.0     -1000.0    
  47  -1000.0     -1000.0     -1000.0     -1000.0     -1000.0     -1000.0     -1000.0     -1000.0     -1000.0     -1000.0    
      -1000.0     -1000.0     -1000.0     -1000.0     -1000.0     -1000.0     -1000.0     -1000.0     -1000.0     -1000.0    
      -1000.0     -1000.0     -1000.0     -1000.0     -1000.0       78.06       78.00       77.92       77.83       77.75    
        77.67       77.61     -1000.0     -1000.0     -1000.0     -1000.0     -1000.0     -1000.0     -1000.0     -1000.0    
      -1000.0     -1000.0     -1000.0     -1000.0     -1000.0     -1000.0     -1000.0     -1000.0     -1000.0     -1000.0    
  48  -1000.0     -1000.0     -1000.0     -1000.0     -1000.0     -1000.0     -1000.0     -1000.0     -1000.0     -1000.0    
      -1000.0     -1000.0     -1000.0     -1000.0     -1000.0     -1000.0     -1000.0     -1000.0     -1000.0     -1000.0    
      -1000.0     -1000.0     -1000.0     -1000.0     -1000.0       78.00       77.97       77.91       77.85       77.79    
        77.73     -1000.0     -1000.0     -1000.0     -1000.0     -1000.0     -1000.0     -1000.0     -1000.0     -1000.0    
      -1000.0     -1000.0     -1000.0     -1000.0     -1000.0     -1000.0     -1000.0     -1000.0     -1000.0     -1000.0    
  49  -1000.0     -1000.0     -1000.0     -1000.0     -1000.0     -1000.0     -1000.0     -1000.0     -1000.0     -1000.0    
      -1000.0     -1000.0     -1000.0     -1000.0     -1000.0     -1000.0     -1000.0     -1000.0     -1000.0     -1000.0    
      -1000.0     -1000.0     -1000.0     -1000.0     -1000.0       77.97       77.95       77.91       77.86       77.82    
      -1000.0     -1000.0     -1000.0     -1000.0     -1000.0     -1000.0     -1000.0     -1000.0     -1000.0     -1000.0    
      -1000.0     -1000.0     -1000.0     -1000.0     -1000.0     -1000.0     -1000.0     -1000.0     -1000.0     -1000.0    
  50  -1000.0     -1000.0     -1000.0     -1000.0     -1000.0     -1000.0     -1000.0     -1000.0     -1000.0     -1000.0    
      -1000.0     -1000.0     -1000.0     -1000.0     -1000.0     -1000.0     -1000.0     -1000.0     -1000.0     -1000.0    
      -1000.0     -1000.0     -1000.0     -1000.0     -1000.0     -1000.0     -1000.0     -1000.0     -1000.0     -1000.0    
      -1000.0     -1000.0     -1000.0     -1000.0     -1000.0     -1000.0     -1000.0     -1000.0     -1000.0     -1000.0    
      -1000.0     -1000.0     -1000.0     -1000.0     -1000.0     -1000.0     -1000.0     -1000.0     -1000.0     -1000.0    
1
              HEAD IN LAYER   2 AT END OF TIME STEP   1 IN STRESS PERIOD    1
  ---------------------------------------------------------------------------

            1           2           3           4           5           6           7           8           9          10
           11          12          13          14          15          16          17          18          19          20
           21          22          23          24          25          26          27          28          29          30
           31          32          33          34          35          36          37          38          39          40
           41          42          43          44          45          46          47          48          49          50
 ........................................................................................................................
   1  -1000.0     -1000.0     -1000.0     -1000.0     -1000.0     -1000.0     -1000.0     -1000.0     -1000.0     -1000.0    
      -1000.0     -1000.0     -1000.0     -1000.0     -1000.0     -1000.0     -1000.0     -1000.0     -1000.0     -1000.0    
      -1000.0     -1000.0     -1000.0     -1000.0     -1000.0     -1000.0     -1000.0     -1000.0     -1000.0     -1000.0    
      -1000.0     -1000.0     -1000.0     -1000.0     -1000.0     -1000.0     -1000.0     -1000.0     -1000.0     -1000.0    
      -1000.0     -1000.0     -1000.0     -1000.0     -1000.0     -1000.0     -1000.0     -1000.0     -1000.0     -1000.0    
   2  -1000.0     -1000.0     -1000.0     -1000.0     -1000.0     -1000.0     -1000.0     -1000.0     -1000.0     -1000.0    
      -1000.0     -1000.0     -1000.0     -1000.0     -1000.0     -1000.0     -1000.0     -1000.0     -1000.0     -1000.0    
      -1000.0     -1000.0     -1000.0       78.51       78.42       78.27       78.11       77.92       77.74       77.55    
        77.36       77.20       77.06       76.97     -1000.0     -1000.0     -1000.0     -1000.0     -1000.0     -1000.0    
      -1000.0     -1000.0     -1000.0     -1000.0     -1000.0     -1000.0     -1000.0     -1000.0     -1000.0     -1000.0    
   3  -1000.0     -1000.0     -1000.0     -1000.0     -1000.0     -1000.0     -1000.0     -1000.0     -1000.0     -1000.0    
      -1000.0     -1000.0     -1000.0     -1000.0     -1000.0     -1000.0     -1000.0     -1000.0     -1000.0     -1000.0    
      -1000.0     -1000.0       78.73       78.60       78.46       78.30       78.12       77.93       77.73       77.54    
        77.35       77.17       77.01       76.87       76.75     -1000.0     -1000.0     -1000.0     -1000.0     -1000.0    
      -1000.0     -1000.0     -1000.0     -1000.0     -1000.0     -1000.0     -1000.0     -1000.0     -1000.0     -1000.0    
   4  -1000.0     -1000.0     -1000.0     -1000.0     -1000.0     -1000.0     -1000.0     -1000.0     -1000.0     -1000.0    
      -1000.0     -1000.0     -1000.0     -1000.0     -1000.0     -1000.0     -1000.0     -1000.0     -1000.0     -1000.0    
      -1000.0     -1000.0       78.85       78.71       78.53       78.34       78.15       77.94       77.73       77.53    
        77.32       77.13       76.94       76.77       76.63     -1000.0     -1000.0     -1000.0     -1000.0     -1000.0    
      -1000.0     -1000.0     -1000.0     -1000.0     -1000.0     -1000.0     -1000.0     -1000.0     -1000.0     -1000.0    
   5  -1000.0     -1000.0     -1000.0     -1000.0     -1000.0     -1000.0     -1000.0     -1000.0     -1000.0     -1000.0    
      -1000.0     -1000.0     -1000.0     -1000.0     -1000.0     -1000.0     -1000.0       80.44       80.31       80.10    
        79.83       79.50       79.11       78.85       78.62       78.40       78.18       77.95       77.73       77.51    
        77.29       77.07       76.85       76.63       76.37       75.97       75.63       75.32       75.04       74.77    
        74.53       74.32       74.15       74.04     -1000.0     -1000.0     -1000.0     -1000.0     -1000.0     -1000.0    
   6  -1000.0     -1000.0     -1000.0     -1000.0     -1000.0     -1000.0     -1000.0     -1000.0     -1000.0     -1000.0    
      -1000.0     -1000.0     -1000.0     -1000.0     -1000.0     -1000.0     -1000.0       80.56       80.39       80.16    
        79.88       79.57       79.24       78.96       78.70       78.45       78.20       77.96       77.73       77.49    
        77.25       77.01       76.77       76.52       76.24       75.92       75.60       75.30       75.01       74.75    
        74.50       74.28       74.08       73.93       73.79     -1000.0     -1000.0     -1000.0     -1000.0     -1000.0    
   7  -1000.0     -1000.0     -1000.0     -1000.0     -1000.0     -1000.0     -1000.0     -1000.0     -1000.0     -1000.0    
      -1000.0     -1000.0     -1000.0       82.10       81.94       81.65       81.30       80.86       80.55       80.26    
        79.96       79.65       79.34       79.04       78.76       78.49       78.23       77.97       77.72       77.47    
        77.21       76.96       76.70       76.43       76.15       75.85       75.55       75.26       74.97       74.70    
        74.45       74.21       73.99       73.80       73.65     -1000.0     -1000.0     -1000.0     -1000.0     -1000.0    
   8  -1000.0     -1000.0     -1000.0     -1000.0     -1000.0     -1000.0     -1000.0     -1000.0     -1000.0     -1000.0    
      -1000.0     -1000.0       82.37       82.22       82.01       81.72       81.38       81.02       80.68       80.36    
        80.04       79.73       79.41       79.11       78.81       78.53       78.25       77.98       77.71       77.44    
        77.18       76.91       76.64       76.36       76.08       75.79       75.49       75.20       74.92       74.64    
        74.37       74.11       73.87       73.62       73.36       72.98       72.73       72.58     -1000.0     -1000.0    
   9  -1000.0     -1000.0     -1000.0     -1000.0     -1000.0     -1000.0     -1000.0     -1000.0     -1000.0     -1000.0    
      -1000.0     -1000.0       82.46       82.34       82.13       81.82       81.49       81.14       80.80       80.46    
        80.13       79.80       79.48       79.16       78.86       78.56       78.27       77.98       77.70       77.42    
        77.14       76.87       76.59       76.30       76.02       75.72       75.43       75.14       74.85       74.57    
        74.29       74.01       73.74       73.46       73.18       72.87       72.61       72.44     -1000.0     -1000.0    
  10  -1000.0     -1000.0     -1000.0     -1000.0     -1000.0     -1000.0     -1000.0     -1000.0     -1000.0     -1000.0    
      -1000.0     -1000.0       82.64       82.51       82.28       81.96       81.62       81.26       80.91       80.56    
        80.21       79.87       79.54       79.21       78.89       78.58       78.27       77.98       77.68       77.39    
        77.11       76.82       76.53       76.24       75.95       75.66       75.37       75.07       74.78       74.49    
        74.20       73.91       73.62       73.32       73.01       72.70       72.40       72.13       71.83     -1000.0    
  11  -1000.0     -1000.0     -1000.0     -1000.0     -1000.0     -1000.0     -1000.0     -1000.0     -1000.0     -1000.0    
      -1000.0     -1000.0       82.89       82.73       82.46       82.12       81.75       81.38       81.01       80.65    
        80.29       79.93       79.58       79.24       78.91       78.59       78.27       77.97       77.66       77.36    
        77.07       76.77       76.48       76.19       75.89       75.60       75.30       75.00       74.71       74.41    
        74.11       73.80       73.50       73.18       72.85       72.51       72.17       71.83       71.53     -1000.0    
  12  -1000.0     -1000.0     -1000.0     -1000.0     -1000.0     -1000.0     -1000.0     -1000.0     -1000.0     -1000.0    
      -1000.0     -1000.0       83.25       83.01       82.68       82.29       81.89       81.50       81.11       80.73    
        80.35       79.98       79.62       79.27       78.93       78.59       78.27       77.95       77.64       77.33    
        77.03       76.73       76.43       76.13       75.83       75.53       75.24       74.94       74.63       74.33    
        74.02       73.70       73.38       73.05       72.70       72.33       71.94       71.50       70.94       70.00    
  13  -1000.0     -1000.0     -1000.0     -1000.0     -1000.0       86.48       86.34       86.12       85.83       85.47    
        85.03       84.49       83.80       83.33       82.91       82.46       82.03       81.61       81.20       80.80    
        80.41       80.03       79.65       79.29       78.93       78.59       78.25       77.92       77.60       77.29    
        76.98       76.67       76.37       76.07       75.77       75.47       75.17       74.87       74.56       74.25    
        73.93       73.61       73.28       72.93       72.56       72.17       71.75       71.27       70.70       70.00    
  14  -1000.0     -1000.0     -1000.0       86.83       86.74       86.56       86.38       86.15       85.86       85.50    
        85.08       84.60       84.06       83.57       83.10       82.62       82.16       81.71       81.28       80.86    
        80.45       80.06       79.67       79.29       78.93       78.57       78.23       77.89       77.56       77.24    
        76.93       76.62       76.31       76.01       75.71       75.41       75.11       74.80       74.49       74.18    
        73.86       73.53       73.18       72.83       72.45       72.05       71.61       71.13       70.59       70.00    
  15  -1000.0     -1000.0       86.95       86.88       86.77       86.62       86.42       86.18       85.89       85.55    
        85.15       84.71       84.22       83.74       83.25       82.74       82.26       81.80       81.35       80.91    
        80.49       80.07       79.67       79.29       78.91       78.54       78.19       77.85       77.51       77.19    
        76.87       76.56       76.25       75.95       75.65       75.34       75.04       74.74       74.43       74.11    
        73.79       73.45       73.11       72.74       72.36       71.95       71.51       71.04       70.54       70.00    
  16  -1000.0     -1000.0       86.97       86.91       86.81       86.66       86.46       86.22       85.94       85.60    
        85.22       84.80       84.34       83.86       83.36       82.84       82.35       81.86       81.40       80.95    
        80.51       80.08       79.67       79.26       78.88       78.50       78.14       77.79       77.45       77.12    
        76.80       76.49       76.18       75.88       75.58       75.28       74.98       74.67       74.37       74.05    
        73.73       73.39       73.04       72.67       72.29       71.88       71.45       70.99       70.50       70.00    
  17  -1000.0     -1000.0       87.01       86.95       86.85       86.70       86.50       86.26       85.98       85.65    
        85.28       84.87       84.43       83.95       83.45       82.92       82.41       81.91       81.43       80.96    
        80.51       80.07       79.64       79.23       78.83       78.45       78.08       77.72       77.38       77.05    
        76.73       76.42       76.11       75.81       75.51       75.22       74.92       74.62       74.31       74.00    
        73.67       73.34       72.99       72.63       72.24       71.83       71.40       70.95       70.48       70.00    
  18  -1000.0     -1000.0       87.05       86.99       86.88       86.73       86.54       86.30       86.02       85.70    
        85.33       84.93       84.49       84.02       83.52       82.98       82.46       81.95       81.45       80.97    
        80.50       80.04       79.60       79.18       78.77       78.38       78.00       77.64       77.30       76.97    
        76.65       76.34       76.04       75.74       75.44       75.15       74.86       74.56       74.26       73.95    
        73.63       73.30       72.96       72.59       72.21       71.81       71.38       70.94       70.47       70.00    
  19  -1000.0       87.17       87.11       87.03       86.92       86.76       86.57       86.33       86.06       85.74    
        85.38       84.98       84.54       84.07       83.56       83.02       82.48       81.96       81.45       80.95    
        80.47       80.00       79.54       79.10       78.68       78.28       77.90       77.54       77.20       76.87    
        76.55       76.25       75.95       75.66       75.37       75.09       74.80       74.51       74.22       73.92    
        73.60       73.28       72.94       72.58       72.20       71.80       71.38       70.93       70.47       70.00    
  20  -1000.0       87.19       87.14       87.06       86.94       86.79       86.59       86.36       86.08       85.77    
        85.41       85.01       84.58       84.10       83.59       83.04       82.50       81.96       81.44       80.92    
        80.42       79.93       79.46       79.01       78.58       78.17       77.79       77.43       77.08       76.76    
        76.45       76.15       75.86       75.58       75.30       75.02       74.75       74.47       74.18       73.89    
        73.58       73.27       72.94       72.58       72.21       71.81       71.39       70.94       70.48       70.00    
  21  -1000.0       87.20       87.16       87.08       86.96       86.81       86.62       86.38       86.11       85.79    
        85.44       85.04       84.60       84.13       83.61       83.05       82.50       81.95       81.41       80.88    
        80.36       79.85       79.36       78.89       78.45       78.03       77.65       77.29       76.95       76.63    
        76.33       76.04       75.76       75.49       75.22       74.96       74.69       74.42       74.15       73.87    
        73.58       73.27       72.95       72.61       72.24       71.85       71.42       70.97       70.49       70.00    
  22  -1000.0       87.21       87.17       87.09       86.98       86.82       86.63       86.40       86.12       85.81    
        85.45       85.06       84.62       84.14       83.62       83.05       82.49       81.93       81.37       80.82    
        80.28       79.75       79.23       78.75       78.29       77.87       77.48       77.12       76.79       76.48    
        76.19       75.92       75.65       75.39       75.14       74.89       74.64       74.39       74.13       73.86    
        73.58       73.29       72.98       72.65       72.30       71.91       71.48       71.02       70.52       70.00    
  23  -1000.0       87.21       87.17       87.10       86.98       86.83       86.63       86.40       86.13       85.82    
        85.46       85.07       84.63       84.15       83.62       83.05       82.47       81.90       81.33       80.75    
        80.18       79.62       79.08       78.57       78.09       77.66       77.28       76.93       76.61       76.32    
        76.04       75.78       75.53       75.29       75.06       74.82       74.59       74.35       74.11       73.86    
        73.60       73.33       73.04       72.73       72.38       72.00       71.58       71.10       70.57       70.00    
  24  -1000.0       87.21       87.17       87.09       86.98       86.82       86.63       86.40       86.13       85.82    
        85.47       85.07       84.63       84.15       83.62       83.04       82.45       81.87       81.27       80.68    
        80.07       79.47       78.89       78.34       77.85       77.41       77.04       76.70       76.41       76.13    
        75.88       75.64       75.41       75.19       74.97       74.75       74.54       74.32       74.10       73.87    
        73.63       73.38       73.12       72.83       72.50       72.14       71.73       71.23       70.66       70.00    
  25  -1000.0       87.20       87.16       87.08       86.97       86.81       86.63       86.40       86.13       85.82    
        85.46       85.07       84.63       84.14       83.61       83.03       82.44       81.83       81.22       80.60    
        79.95       79.30       78.67       78.07       77.53       77.10       76.75       76.44       76.17       75.93    
        75.70       75.48       75.28       75.08       74.88       74.68       74.49       74.29       74.10       73.89    
        73.68       73.45       73.21       72.95       72.66       72.33       71.94       71.45       70.81       70.00    
  26  -1000.0       87.19       87.13       87.06       86.95       86.80       86.61       86.38       86.11       85.81    
        85.46       85.06       84.62       84.14       83.60       83.02       82.42       81.81       81.17       80.54    
        79.84       79.11       78.40       77.71       77.11       76.71       76.41       76.15       75.91       75.70    
        75.50       75.32       75.14       74.96       74.79       74.62       74.44       74.27       74.10       73.92    
        73.73       73.54       73.33       73.11       72.86       72.59       72.25       71.81       71.12       70.00    
  27  -1000.0     -1000.0       87.08       87.02       86.92       86.77       86.59       86.36       86.10       85.79    
        85.44       85.05       84.61       84.13       83.59       83.01       82.42       81.82       81.21       80.58    
        79.94       79.29       78.65       78.05       77.52       77.09       76.74       76.44       76.17       75.93    
        75.70       75.48       75.28       75.08       74.88       74.69       74.49       74.30       74.10       73.89    
        73.68       73.45       73.21       72.95       72.66       72.33       71.94       71.45       70.81       70.00    
  28  -1000.0     -1000.0       87.04       86.99       86.89       86.74       86.56       86.33       86.07       85.77    
        85.42       85.03       84.60       84.12       83.59       83.01       82.42       81.84       81.24       80.64    
        80.04       79.44       78.87       78.32       77.83       77.40       77.02       76.69       76.40       76.13    
        75.88       75.64       75.41       75.19       74.98       74.76       74.55       74.33       74.11       73.88    
        73.64       73.38       73.11       72.82       72.50       72.14       71.72       71.23       70.65       70.00    
  29  -1000.0     -1000.0       87.01       86.95       86.85       86.70       86.52       86.30       86.04       85.74    
        85.40       85.02       84.58       84.10       83.58       83.00       82.43       81.85       81.28       80.71    
        80.14       79.58       79.04       78.53       78.06       77.64       77.26       76.91       76.60       76.31    
        76.04       75.79       75.54       75.30       75.07       74.84       74.60       74.36       74.12       73.87    
        73.60       73.33       73.03       72.72       72.37       71.99       71.57       71.09       70.57       70.00    
  30  -1000.0     -1000.0       86.98       86.93       86.81       86.65       86.47       86.26       86.01       85.71    
        85.38       84.99       84.56       84.09       83.56       83.00       82.43       81.87       81.31       80.76    
        80.22       79.69       79.18       78.70       78.25       77.83       77.45       77.10       76.78       76.48    
        76.19       75.92       75.66       75.41       75.16       74.91       74.66       74.40       74.14       73.87    
        73.59       73.29       72.98       72.64       72.28       71.89       71.47       71.01       70.52       70.00    
  31  -1000.0     -1000.0       86.97       86.91       86.78       86.58       86.40       86.20       85.97       85.68    
        85.35       84.97       84.54       84.06       83.54       82.98       82.42       81.87       81.33       80.80    
        80.28       79.78       79.29       78.83       78.40       77.99       77.61       77.26       76.93       76.62    
        76.33       76.05       75.78       75.51       75.25       74.98       74.72       74.45       74.17       73.88    
        73.58       73.27       72.94       72.59       72.21       71.82       71.40       70.95       70.48       70.00    
  32  -1000.0     -1000.0     -1000.0     -1000.0     -1000.0       86.42       86.31       86.14       85.92       85.65    
        85.32       84.94       84.51       84.04       83.52       82.96       82.41       81.87       81.34       80.82    
        80.32       79.84       79.38       78.93       78.51       78.12       77.75       77.40       77.07       76.75    
        76.45       76.16       75.88       75.61       75.33       75.06       74.78       74.50       74.21       73.91    
        73.59       73.26       72.92       72.55       72.17       71.77       71.35       70.91       70.46       70.00    
  33  -1000.0     -1000.0     -1000.0     -1000.0     -1000.0       86.32       86.24       86.09       85.88       85.62    
        85.29       84.92       84.48       84.01       83.48       82.92       82.37       81.84       81.33       80.83    
        80.35       79.88       79.44       79.01       78.61       78.22       77.86       77.51       77.18       76.86    
        76.56       76.27       75.98       75.70       75.42       75.14       74.85       74.56       74.26       73.94    
        73.61       73.27       72.91       72.54       72.14       71.74       71.32       70.89       70.45       70.00    
  34  -1000.0     -1000.0     -1000.0     -1000.0     -1000.0       86.26       86.19       86.05       85.86       85.60    
        85.28       84.89       84.45       83.96       83.43       82.87       82.32       81.80       81.30       80.81    
        80.35       79.91       79.48       79.07       78.68       78.30       77.94       77.60       77.28       76.96    
        76.66       76.36       76.08       75.79       75.50       75.22       74.93       74.63       74.32       73.99    
        73.65       73.29       72.92       72.53       72.13       71.72       71.30       70.87       70.44       70.00    
  35  -1000.0     -1000.0     -1000.0     -1000.0     -1000.0       86.22       86.16       86.03       85.84       85.59    
        85.27       84.88       84.43       83.92       83.36       82.79       82.24       81.73       81.24       80.78    
        80.33       79.91       79.50       79.10       78.73       78.36       78.02       77.68       77.36       77.05    
        76.75       76.45       76.16       75.88       75.59       75.30       75.01       74.71       74.39       74.06    
        73.70       73.33       72.94       72.54       72.12       71.70       71.28       70.85       70.43       70.00    
  36  -1000.0     -1000.0     -1000.0     -1000.0     -1000.0       86.20       86.14       86.03       85.85       85.60    
        85.29       84.89       84.40       83.85       83.27       82.68       82.13       81.63       81.16       80.72    
        80.30       79.89       79.50       79.12       78.76       78.41       78.07       77.75       77.43       77.13    
        76.83       76.54       76.25       75.96       75.68       75.39       75.10       74.80       74.48       74.14    
        73.77       73.38       72.97       72.55       72.12       71.69       71.26       70.84       70.42       70.00    
  37  -1000.0     -1000.0     -1000.0     -1000.0     -1000.0       86.19       86.14       86.03       85.87       85.64    
        85.33       84.92       84.39       83.78       83.13       82.51       81.98       81.50       81.06       80.64    
        80.24       79.86       79.48       79.12       78.78       78.44       78.12       77.80       77.49       77.20    
        76.90       76.62       76.33       76.05       75.77       75.48       75.20       74.90       74.58       74.24    
        73.87       73.45       73.01       72.57       72.12       71.68       71.23       70.81       70.40       70.00    
  38  -1000.0     -1000.0     -1000.0     -1000.0     -1000.0       86.19       86.14       86.05       85.91       85.71    
        85.44       85.04       84.40       83.71       82.89       82.26       81.76       81.33       80.92       80.54    
        80.17       79.81       79.46       79.11       78.78       78.46       78.15       77.84       77.55       77.26    
        76.97       76.69       76.41       76.13       75.86       75.58       75.30       75.02       74.72       74.39    
        74.00       73.53       73.06       72.59       72.12       71.65       71.19       70.77       70.38       70.00    
  39  -1000.0     -1000.0     -1000.0     -1000.0     -1000.0     -1000.0       86.13       86.07       85.97       85.82    
        85.61       85.35     -1000.0     -1000.0       82.41       81.87       81.48       81.12       80.77       80.42    
        80.08       79.75       79.42       79.09       78.77       78.47       78.17       77.88       77.59       77.31    
        77.03       76.76       76.48       76.21       75.94       75.68       75.41       75.15       74.88       74.58    
        74.22       73.62       73.09       72.60       72.11       71.62       71.09       70.70       70.34       70.00    
  40  -1000.0     -1000.0     -1000.0     -1000.0     -1000.0     -1000.0       86.14       86.10       86.02       85.92    
        85.79     -1000.0     -1000.0     -1000.0     -1000.0       81.35       81.15       80.89       80.61       80.30    
        79.99       79.68       79.37       79.06       78.76       78.46       78.18       77.90       77.63       77.36    
        77.09       76.83       76.56       76.29       76.03       75.77       75.52       75.28       75.06       74.84    
        74.68     -1000.0     -1000.0     -1000.0     -1000.0     -1000.0       70.85       70.61       70.27       70.00    
  41  -1000.0     -1000.0     -1000.0     -1000.0     -1000.0     -1000.0     -1000.0       86.10       86.06       86.02    
      -1000.0     -1000.0     -1000.0     -1000.0     -1000.0       81.01       80.89       80.70       80.46       80.19    
        79.91       79.61       79.31       79.02       78.73       78.45       78.18       77.92       77.67       77.41    
        77.15       76.89       76.63       76.36       76.11       75.86       75.63       75.41       75.22       75.06    
        74.96     -1000.0     -1000.0     -1000.0     -1000.0     -1000.0     -1000.0     -1000.0       70.14       70.00    
  42  -1000.0     -1000.0     -1000.0     -1000.0     -1000.0     -1000.0     -1000.0     -1000.0     -1000.0     -1000.0    
      -1000.0     -1000.0     -1000.0     -1000.0     -1000.0       80.80       80.70       80.54       80.34       80.10    
        79.83       79.54       79.25       78.97       78.69       78.43       78.18       77.94       77.70       77.46    
        77.22       76.96       76.69       76.43       76.17       75.93       75.71       75.51       75.34       75.22    
        75.15     -1000.0     -1000.0     -1000.0     -1000.0     -1000.0     -1000.0     -1000.0     -1000.0     -1000.0    
  43  -1000.0     -1000.0     -1000.0     -1000.0     -1000.0     -1000.0     -1000.0     -1000.0     -1000.0     -1000.0    
      -1000.0     -1000.0     -1000.0     -1000.0     -1000.0       80.69       80.57       80.43       80.25       80.02    
        79.77       79.48       79.18       78.91       78.65       78.40       78.17       77.95       77.73       77.52    
        77.29       77.04       76.76       76.48       76.22       75.98       75.77       75.58       75.43       75.32    
        75.26     -1000.0     -1000.0     -1000.0     -1000.0     -1000.0     -1000.0     -1000.0     -1000.0     -1000.0    
  44  -1000.0     -1000.0     -1000.0     -1000.0     -1000.0     -1000.0     -1000.0     -1000.0     -1000.0     -1000.0    
      -1000.0     -1000.0     -1000.0     -1000.0     -1000.0     -1000.0       80.47       80.37       80.20       79.99    
        79.73       79.44       79.09       78.83       78.58       78.35       78.15       77.95       77.76       77.58    
        77.39       77.16       76.81       76.51       76.25       76.01       75.80       75.62       75.47       75.37    
        75.31     -1000.0     -1000.0     -1000.0     -1000.0     -1000.0     -1000.0     -1000.0     -1000.0     -1000.0    
  45  -1000.0     -1000.0     -1000.0     -1000.0     -1000.0     -1000.0     -1000.0     -1000.0     -1000.0     -1000.0    
      -1000.0     -1000.0     -1000.0     -1000.0     -1000.0     -1000.0     -1000.0     -1000.0     -1000.0     -1000.0    
      -1000.0     -1000.0       78.92       78.75       78.49       78.28       78.11       77.95       77.79       77.65    
        77.51       77.40     -1000.0     -1000.0     -1000.0     -1000.0     -1000.0     -1000.0     -1000.0     -1000.0    
      -1000.0     -1000.0     -1000.0     -1000.0     -1000.0     -1000.0     -1000.0     -1000.0     -1000.0     -1000.0    
  46  -1000.0     -1000.0     -1000.0     -1000.0     -1000.0     -1000.0     -1000.0     -1000.0     -1000.0     -1000.0    
      -1000.0     -1000.0     -1000.0     -1000.0     -1000.0     -1000.0     -1000.0     -1000.0     -1000.0     -1000.0    
      -1000.0     -1000.0     -1000.0     -1000.0       78.34       78.18       78.06       77.94       77.82       77.71    
        77.61       77.54     -1000.0     -1000.0     -1000.0     -1000.0     -1000.0     -1000.0     -1000.0     -1000.0    
      -1000.0     -1000.0     -1000.0     -1000.0     -1000.0     -1000.0     -1000.0     -1000.0     -1000.0     -1000.0    
  47  -1000.0     -1000.0     -1000.0     -1000.0     -1000.0     -1000.0     -1000.0     -1000.0     -1000.0     -1000.0    
      -1000.0     -1000.0     -1000.0     -1000.0     -1000.0     -1000.0     -1000.0     -1000.0     -1000.0     -1000.0    
      -1000.0     -1000.0     -1000.0     -1000.0     -1000.0       78.06       78.00       77.92       77.83       77.75    
        77.67       77.61     -1000.0     -1000.0     -1000.0     -1000.0     -1000.0     -1000.0     -1000.0     -1000.0    
      -1000.0     -1000.0     -1000.0     -1000.0     -1000.0     -1000.0     -1000.0     -1000.0     -1000.0     -1000.0    
  48  -1000.0     -1000.0     -1000.0     -1000.0     -1000.0     -1000.0     -1000.0     -1000.0     -1000.0     -1000.0    
      -1000.0     -1000.0     -1000.0     -1000.0     -1000.0     -1000.0     -1000.0     -1000.0     -1000.0     -1000.0    
      -1000.0     -1000.0     -1000.0     -1000.0     -1000.0       78.00       77.97       77.91       77.85       77.79    
        77.73     -1000.0     -1000.0     -1000.0     -1000.0     -1000.0     -1000.0     -1000.0     -1000.0     -1000.0    
      -1000.0     -1000.0     -1000.0     -1000.0     -1000.0     -1000.0     -1000.0     -1000.0     -1000.0     -1000.0    
  49  -1000.0     -1000.0     -1000.0     -1000.0     -1000.0     -1000.0     -1000.0     -1000.0     -1000.0     -1000.0    
      -1000.0     -1000.0     -1000.0     -1000.0     -1000.0     -1000.0     -1000.0     -1000.0     -1000.0     -1000.0    
      -1000.0     -1000.0     -1000.0     -1000.0     -1000.0       77.97       77.95       77.91       77.86       77.82    
      -1000.0     -1000.0     -1000.0     -1000.0     -1000.0     -1000.0     -1000.0     -1000.0     -1000.0     -1000.0    
      -1000.0     -1000.0     -1000.0     -1000.0     -1000.0     -1000.0     -1000.0     -1000.0     -1000.0     -1000.0    
  50  -1000.0     -1000.0     -1000.0     -1000.0     -1000.0     -1000.0     -1000.0     -1000.0     -1000.0     -1000.0    
      -1000.0     -1000.0     -1000.0     -1000.0     -1000.0     -1000.0     -1000.0     -1000.0     -1000.0     -1000.0    
      -1000.0     -1000.0     -1000.0     -1000.0     -1000.0     -1000.0     -1000.0     -1000.0     -1000.0     -1000.0    
      -1000.0     -1000.0     -1000.0     -1000.0     -1000.0     -1000.0     -1000.0     -1000.0     -1000.0     -1000.0    
      -1000.0     -1000.0     -1000.0     -1000.0     -1000.0     -1000.0     -1000.0     -1000.0     -1000.0     -1000.0    

 HEAD WILL BE SAVED ON UNIT   51 AT END OF TIME STEP    1, STRESS PERIOD    1
1
  VOLUMETRIC BUDGET FOR ENTIRE MODEL AT END OF TIME STEP    1, STRESS PERIOD   1
  ------------------------------------------------------------------------------

     CUMULATIVE VOLUMES      L**3       RATES FOR THIS TIME STEP      L**3/T
     ------------------                 ------------------------

           IN:                                      IN:
           ---                                      ---
             STORAGE =           0.0000               STORAGE =           0.0000
       CONSTANT HEAD =           0.0000         CONSTANT HEAD =           0.0000
            RECHARGE =       14120.0000              RECHARGE =       14120.0000
      STREAM LEAKAGE =        3380.5352        STREAM LEAKAGE =        3380.5352

            TOTAL IN =       17500.5352              TOTAL IN =       17500.5352

          OUT:                                     OUT:
          ----                                     ----
             STORAGE =           0.0000               STORAGE =           0.0000
       CONSTANT HEAD =       11313.5850         CONSTANT HEAD =       11313.5850
            RECHARGE =           0.0000              RECHARGE =           0.0000
      STREAM LEAKAGE =        6186.9473        STREAM LEAKAGE =        6186.9473

           TOTAL OUT =       17500.5312             TOTAL OUT =       17500.5312

            IN - OUT =       3.9062E-03              IN - OUT =       3.9062E-03

 PERCENT DISCREPANCY =           0.00     PERCENT DISCREPANCY =           0.00






         TIME SUMMARY AT END OF TIME STEP    1 IN STRESS PERIOD    1
                    SECONDS     MINUTES      HOURS       DAYS        YEARS
                    -----------------------------------------------------------
   TIME STEP LENGTH  86400.      1440.0      24.000      1.0000     2.73785E-03
 STRESS PERIOD TIME  86400.      1440.0      24.000      1.0000     2.73785E-03
         TOTAL TIME  86400.      1440.0      24.000      1.0000     2.73785E-03
1

 Run end date and time (yyyy/mm/dd hh:mm:ss): 2021/12/01 17:06:07
 Elapsed run time:  0.075 Seconds

