                                  MODFLOW-2005     
      U.S. GEOLOGICAL SURVEY MODULAR FINITE-DIFFERENCE GROUND-WATER FLOW MODEL
                            VERSION 1.12.00 2/3/2017

 LIST FILE: well.list
                         UNIT    2

 OPENING well.dis
 FILE TYPE:DIS   UNIT   11   STATUS:OLD    
 FORMAT:FORMATTED              ACCESS:SEQUENTIAL          

 OPENING well.bas
 FILE TYPE:BAS6   UNIT   13   STATUS:OLD    
 FORMAT:FORMATTED              ACCESS:SEQUENTIAL          

 OPENING well.lpf
 FILE TYPE:LPF   UNIT   15   STATUS:OLD    
 FORMAT:FORMATTED              ACCESS:SEQUENTIAL          

 OPENING well.oc
 FILE TYPE:OC   UNIT   14   STATUS:OLD    
 FORMAT:FORMATTED              ACCESS:SEQUENTIAL          

 OPENING well.pcg
 FILE TYPE:PCG   UNIT   27   STATUS:OLD    
 FORMAT:FORMATTED              ACCESS:SEQUENTIAL          

 OPENING well.rch
 FILE TYPE:RCH   UNIT   19   STATUS:OLD    
 FORMAT:FORMATTED              ACCESS:SEQUENTIAL          

 OPENING well.str
 FILE TYPE:STR   UNIT  118   STATUS:OLD    
 FORMAT:FORMATTED              ACCESS:SEQUENTIAL          

 OPENING well.evt
 FILE TYPE:EVT   UNIT   22   STATUS:OLD    
 FORMAT:FORMATTED              ACCESS:SEQUENTIAL          

 OPENING well.wel
 FILE TYPE:WEL   UNIT   20   STATUS:OLD    
 FORMAT:FORMATTED              ACCESS:SEQUENTIAL          

 OPENING well.cbc
 FILE TYPE:DATA(BINARY)   UNIT   53   STATUS:REPLACE
 FORMAT:BINARY                 ACCESS:SEQUENTIAL          

 OPENING well.hds
 FILE TYPE:DATA(BINARY)   UNIT   51   STATUS:REPLACE
 FORMAT:BINARY                 ACCESS:SEQUENTIAL          

 BAS -- BASIC PACKAGE, VERSION 7, 5/2/2005 INPUT READ FROM UNIT   13
 
 MODFLOW was compiled using mixed precision
 Precision of REAL variables:           6
 Precision of DOUBLE PRECISION variables:          15

 DISCRETIZATION INPUT DATA READ FROM UNIT   11
 # DIS package for  MODFLOW-2005, generated by Flopy.
    2 LAYERS        50 ROWS        50 COLUMNS
    1 STRESS PERIOD(S) IN SIMULATION
 MODEL TIME UNIT IS DAYS
 MODEL LENGTH UNIT IS METERS
  Confining bed flag for each layer:
   0   0

                     DELR =   1000.00    

                     DELC =   1000.00    



           TOP ELEVATION OF LAYER 1
 READING ON UNIT   11 WITH FORMAT: (50E15.6)           



             MODEL LAYER BOTTOM EL. FOR LAYER   1
 READING ON UNIT   11 WITH FORMAT: (50E15.6)           



             MODEL LAYER BOTTOM EL. FOR LAYER   2
 READING ON UNIT   11 WITH FORMAT: (50E15.6)           


 STRESS PERIOD     LENGTH       TIME STEPS     MULTIPLIER FOR DELT    SS FLAG
 ----------------------------------------------------------------------------
        1         1.000000          1                    1.000         SS

 STEADY-STATE SIMULATION



 
 # BAS6 package for  MODFLOW-2005, generated by Flopy.                           
 THE FREE FORMAT OPTION HAS BEEN SELECTED



                     BOUNDARY ARRAY FOR LAYER   1
 READING ON UNIT   13 WITH FORMAT: (50I10)             



                     BOUNDARY ARRAY FOR LAYER   2
 READING ON UNIT   13 WITH FORMAT: (50I10)             

 AQUIFER HEAD WILL BE SET TO  -999.99     AT ALL NO-FLOW NODES (IBOUND=0).



                       INITIAL HEAD FOR LAYER   1
 READING ON UNIT   13 WITH FORMAT: (50E15.6)           



                       INITIAL HEAD FOR LAYER   2
 READING ON UNIT   13 WITH FORMAT: (50E15.6)           
 # OC package for  MODFLOW-2005, generated by Flopy.

 OUTPUT CONTROL IS SPECIFIED ONLY AT TIME STEPS FOR WHICH OUTPUT IS DESIRED
 COMPACT CELL-BY-CELL BUDGET FILES WILL BE WRITTEN
 AUXILIARY DATA WILL BE SAVED IN CELL-BY-CELL BUDGET FILES
 HEAD PRINT FORMAT CODE IS   0    DRAWDOWN PRINT FORMAT CODE IS   0
 HEADS WILL BE SAVED ON UNIT   51    DRAWDOWNS WILL BE SAVED ON UNIT    0

 LPF -- LAYER-PROPERTY FLOW PACKAGE, VERSION 7, 5/2/2005
         INPUT READ FROM UNIT   15
 # LPF package for  MODFLOW-2005, generated by Flopy.
 CELL-BY-CELL FLOWS WILL BE SAVED ON UNIT   53
 HEAD AT CELLS THAT CONVERT TO DRY= -1.00000E+30
 No named parameters

   LAYER FLAGS:
 LAYER       LAYTYP        LAYAVG         CHANI        LAYVKA        LAYWET
 ---------------------------------------------------------------------------
    1             1             0     0.000E+00             0             0
    2             1             0     0.000E+00             0             0

   INTERPRETATION OF LAYER FLAGS:
                        INTERBLOCK     HORIZONTAL    DATA IN
         LAYER TYPE   TRANSMISSIVITY   ANISOTROPY   ARRAY VKA   WETTABILITY
 LAYER      (LAYTYP)      (LAYAVG)       (CHANI)      (LAYVKA)      (LAYWET)
 ---------------------------------------------------------------------------
    1   CONVERTIBLE      HARMONIC      VARIABLE    VERTICAL K  NON-WETTABLE
    2   CONVERTIBLE      HARMONIC      VARIABLE    VERTICAL K  NON-WETTABLE

 WETTING CAPABILITY IS NOT ACTIVE IN ANY LAYER

    HYD. COND. ALONG ROWS =   21.5000     FOR LAYER   1

   HORIZ. ANI. (COL./ROW) =   1.00000     FOR LAYER   1

      VERTICAL HYD. COND. =   10.0000     FOR LAYER   1

    HYD. COND. ALONG ROWS =   21.5000     FOR LAYER   2

   HORIZ. ANI. (COL./ROW) =   1.00000     FOR LAYER   2

      VERTICAL HYD. COND. =   10.0000     FOR LAYER   2

 WEL -- WELL PACKAGE, VERSION 7, 5/2/2005 INPUT READ FROM UNIT   20
 # WEL package for  MODFLOW-2005, generated by Flopy.
 No named parameters
 MAXIMUM OF      1 ACTIVE WELLS AT ONE TIME


     0 Well parameters

 EVT -- EVAPOTRANSPIRATION PACKAGE, VERSION 7, 5/2/2005
         INPUT READ FROM UNIT   22
 # EVT package for  MODFLOW-2005, generated by Flopy.
 No named parameters
 OPTION 3 -- EVAPOTRANSPIRATION FROM HIGHEST ACTIVE NODE IN EACH VERTICAL COLUMN
 CELL-BY-CELL FLOWS WILL BE SAVED ON UNIT   53


     0 Evapotranspiration parameters

 RCH -- RECHARGE PACKAGE, VERSION 7, 5/2/2005 INPUT READ FROM UNIT   19
 # RCH package for  MODFLOW-2005, generated by Flopy.
 No named parameters
 OPTION 3 -- RECHARGE TO HIGHEST ACTIVE NODE IN EACH VERTICAL COLUMN


     0 Recharge parameters

 STR -- STREAM PACKAGE, VERSION 7, 5/2/2005 INPUT READ FROM UNIT  118
 # STR package for  MODFLOW-2005, generated by Flopy.
 No named parameters
 MAXIMUM OF     44 ACTIVE STREAM NODES AT ONE TIME
 NUMBER OF STREAM SEGMENTS IS      1
 NUMBER OF STREAM TRIBUTARIES IS      0
 CELL BUDGETS WILL BE SAVED ON UNITS   53 AND   53


     0 Stream parameters

 PCG -- CONJUGATE-GRADIENT SOLUTION PACKAGE, VERSION 7, 5/2/2005
 # PCG package for  MODFLOW-2005, generated by Flopy.
 MAXIMUM OF     50 CALLS OF SOLUTION ROUTINE
 MAXIMUM OF     30 INTERNAL ITERATIONS PER CALL TO SOLUTION ROUTINE
 MATRIX PRECONDITIONING TYPE :    1



                                    SOLUTION BY THE CONJUGATE-GRADIENT METHOD
                                   -------------------------------------------
                    MAXIMUM NUMBER OF CALLS TO PCG ROUTINE =       50
                        MAXIMUM ITERATIONS PER CALL TO PCG =       30
                               MATRIX PRECONDITIONING TYPE =        1
        RELAXATION FACTOR (ONLY USED WITH PRECOND. TYPE 1) =    0.10000E+01
 PARAMETER OF POLYNOMIAL PRECOND. = 2 (2) OR IS CALCULATED :        0
                         HEAD CHANGE CRITERION FOR CLOSURE =    0.10000E-04
                     RESIDUAL CHANGE CRITERION FOR CLOSURE =    0.10000E-04
            PCG HEAD AND RESIDUAL CHANGE PRINTOUT INTERVAL =      999
     PRINTING FROM SOLVER IS LIMITED(1) OR SUPPRESSED (>1) =        3
                            STEADY-STATE DAMPING PARAMETER =    0.10000E+01
                               TRANSIENT DAMPING PARAMETER =    0.10000E+01
1
                            STRESS PERIOD NO.    1, LENGTH =   1.000000    
                            -----------------------------------------------

                              NUMBER OF TIME STEPS =     1

                               MULTIPLIER FOR DELT =     1.000

                            INITIAL TIME STEP SIZE =   1.000000    

 WELL NO.  LAYER   ROW   COL   STRESS RATE         
 --------------------------------------------------
      1      1     33     23     -0.1250E+05

      1 WELL 



                         ET SURFACE
 READING ON UNIT   22 WITH FORMAT: (50E15.6)           



            EVAPOTRANSPIRATION RATE
 READING ON UNIT   22 WITH FORMAT: (50E15.6)           



                   EXTINCTION DEPTH
 READING ON UNIT   22 WITH FORMAT: (50E15.6)           



                           RECHARGE
 READING ON UNIT   19 WITH FORMAT: (50E15.6)           

     44 STREAM REACHES
 
 SOLVING FOR HEAD 

 OUTPUT CONTROL FOR STRESS PERIOD    1   TIME STEP    1
    PRINT HEAD FOR ALL LAYERS
    PRINT BUDGET
    SAVE HEAD FOR ALL LAYERS
    SAVE BUDGET
 UBDSV2 SAVING "   CONSTANT HEAD" ON UNIT  53 AT TIME STEP  1, STRESS PERIOD   1
 UBDSV1 SAVING "FLOW RIGHT FACE " ON UNIT  53 AT TIME STEP  1, STRESS PERIOD   1
 UBDSV1 SAVING "FLOW FRONT FACE " ON UNIT  53 AT TIME STEP  1, STRESS PERIOD   1
 UBDSV1 SAVING "FLOW LOWER FACE " ON UNIT  53 AT TIME STEP  1, STRESS PERIOD   1
 UBDSV3 SAVING "              ET" ON UNIT  53 AT TIME STEP  1, STRESS PERIOD   1
 UBDSV4 SAVING "  STREAM LEAKAGE" ON UNIT  53 AT TIME STEP  1, STRESS PERIOD   1
 UBDSV4 SAVING "STREAM FLOW OUT " ON UNIT  53 AT TIME STEP  1, STRESS PERIOD   1
1
              HEAD IN LAYER   1 AT END OF TIME STEP   1 IN STRESS PERIOD    1
  ---------------------------------------------------------------------------

            1           2           3           4           5           6           7           8           9          10
           11          12          13          14          15          16          17          18          19          20
           21          22          23          24          25          26          27          28          29          30
           31          32          33          34          35          36          37          38          39          40
           41          42          43          44          45          46          47          48          49          50
 ........................................................................................................................
   1  -1000.0     -1000.0     -1000.0     -1000.0     -1000.0     -1000.0     -1000.0     -1000.0     -1000.0     -1000.0    
      -1000.0     -1000.0     -1000.0     -1000.0     -1000.0     -1000.0     -1000.0     -1000.0     -1000.0     -1000.0    
      -1000.0     -1000.0     -1000.0     -1000.0     -1000.0     -1000.0     -1000.0     -1000.0     -1000.0     -1000.0    
      -1000.0     -1000.0     -1000.0     -1000.0     -1000.0     -1000.0     -1000.0     -1000.0     -1000.0     -1000.0    
      -1000.0     -1000.0     -1000.0     -1000.0     -1000.0     -1000.0     -1000.0     -1000.0     -1000.0     -1000.0    
   2  -1000.0     -1000.0     -1000.0     -1000.0     -1000.0     -1000.0     -1000.0     -1000.0     -1000.0     -1000.0    
      -1000.0     -1000.0     -1000.0     -1000.0     -1000.0     -1000.0     -1000.0     -1000.0     -1000.0     -1000.0    
      -1000.0     -1000.0     -1000.0       74.53       74.48       74.40       74.31       74.21       74.11       74.01    
        73.91       73.82       73.74       73.69     -1000.0     -1000.0     -1000.0     -1000.0     -1000.0     -1000.0    
      -1000.0     -1000.0     -1000.0     -1000.0     -1000.0     -1000.0     -1000.0     -1000.0     -1000.0     -1000.0    
   3  -1000.0     -1000.0     -1000.0     -1000.0     -1000.0     -1000.0     -1000.0     -1000.0     -1000.0     -1000.0    
      -1000.0     -1000.0     -1000.0     -1000.0     -1000.0     -1000.0     -1000.0     -1000.0     -1000.0     -1000.0    
      -1000.0     -1000.0       74.65       74.58       74.50       74.42       74.32       74.22       74.11       74.00    
        73.90       73.80       73.71       73.64       73.57     -1000.0     -1000.0     -1000.0     -1000.0     -1000.0    
      -1000.0     -1000.0     -1000.0     -1000.0     -1000.0     -1000.0     -1000.0     -1000.0     -1000.0     -1000.0    
   4  -1000.0     -1000.0     -1000.0     -1000.0     -1000.0     -1000.0     -1000.0     -1000.0     -1000.0     -1000.0    
      -1000.0     -1000.0     -1000.0     -1000.0     -1000.0     -1000.0     -1000.0     -1000.0     -1000.0     -1000.0    
      -1000.0     -1000.0       74.71       74.64       74.54       74.44       74.33       74.22       74.11       74.00    
        73.88       73.78       73.67       73.58       73.50     -1000.0     -1000.0     -1000.0     -1000.0     -1000.0    
      -1000.0     -1000.0     -1000.0     -1000.0     -1000.0     -1000.0     -1000.0     -1000.0     -1000.0     -1000.0    
   5  -1000.0     -1000.0     -1000.0     -1000.0     -1000.0     -1000.0     -1000.0     -1000.0     -1000.0     -1000.0    
      -1000.0     -1000.0     -1000.0     -1000.0     -1000.0     -1000.0     -1000.0       75.57       75.50       75.39    
        75.24       75.07       74.86       74.72       74.59       74.47       74.35       74.23       74.11       73.99    
        73.87       73.75       73.63       73.50       73.36       73.15       72.96       72.79       72.64       72.49    
        72.36       72.25       72.15       72.09     -1000.0     -1000.0     -1000.0     -1000.0     -1000.0     -1000.0    
   6  -1000.0     -1000.0     -1000.0     -1000.0     -1000.0     -1000.0     -1000.0     -1000.0     -1000.0     -1000.0    
      -1000.0     -1000.0     -1000.0     -1000.0     -1000.0     -1000.0     -1000.0       75.64       75.55       75.42    
        75.27       75.10       74.93       74.78       74.63       74.50       74.37       74.24       74.11       73.98    
        73.85       73.72       73.58       73.44       73.29       73.11       72.94       72.78       72.62       72.48    
        72.34       72.22       72.12       72.04       71.96     -1000.0     -1000.0     -1000.0     -1000.0     -1000.0    
   7  -1000.0     -1000.0     -1000.0     -1000.0     -1000.0     -1000.0     -1000.0     -1000.0     -1000.0     -1000.0    
      -1000.0     -1000.0     -1000.0       76.45       76.37       76.22       76.03       75.79       75.63       75.47    
        75.31       75.15       74.98       74.82       74.67       74.53       74.38       74.24       74.10       73.97    
        73.83       73.69       73.55       73.40       73.24       73.08       72.92       72.75       72.60       72.45    
        72.31       72.19       72.07       71.97       71.89     -1000.0     -1000.0     -1000.0     -1000.0     -1000.0    
   8  -1000.0     -1000.0     -1000.0     -1000.0     -1000.0     -1000.0     -1000.0     -1000.0     -1000.0     -1000.0    
      -1000.0     -1000.0       76.59       76.52       76.41       76.25       76.07       75.88       75.70       75.53    
        75.36       75.19       75.02       74.86       74.70       74.55       74.40       74.25       74.10       73.96    
        73.81       73.66       73.52       73.36       73.21       73.05       72.88       72.72       72.57       72.42    
        72.27       72.14       72.00       71.87       71.73       71.53       71.40       71.32     -1000.0     -1000.0    
   9  -1000.0     -1000.0     -1000.0     -1000.0     -1000.0     -1000.0     -1000.0     -1000.0     -1000.0     -1000.0    
      -1000.0     -1000.0       76.65       76.58       76.47       76.31       76.13       75.95       75.77       75.59    
        75.41       75.24       75.06       74.89       74.73       74.57       74.41       74.25       74.10       73.95    
        73.79       73.64       73.49       73.33       73.17       73.01       72.85       72.69       72.53       72.38    
        72.23       72.08       71.93       71.79       71.63       71.47       71.34       71.25     -1000.0     -1000.0    
  10  -1000.0     -1000.0     -1000.0     -1000.0     -1000.0     -1000.0     -1000.0     -1000.0     -1000.0     -1000.0    
      -1000.0     -1000.0       76.74       76.67       76.55       76.39       76.20       76.02       75.83       75.64    
        75.46       75.28       75.10       74.92       74.75       74.58       74.42       74.25       74.09       73.93    
        73.78       73.62       73.46       73.30       73.14       72.98       72.82       72.65       72.49       72.33    
        72.18       72.02       71.87       71.71       71.55       71.38       71.23       71.09       70.93     -1000.0    
  11  -1000.0     -1000.0     -1000.0     -1000.0     -1000.0     -1000.0     -1000.0     -1000.0     -1000.0     -1000.0    
      -1000.0     -1000.0       76.88       76.80       76.66       76.47       76.28       76.08       75.89       75.69    
        75.50       75.31       75.13       74.94       74.77       74.59       74.42       74.25       74.09       73.92    
        73.76       73.59       73.43       73.27       73.11       72.94       72.78       72.62       72.45       72.29    
        72.13       71.96       71.80       71.63       71.46       71.28       71.11       70.93       70.78     -1000.0    
  12  -1000.0     -1000.0     -1000.0     -1000.0     -1000.0     -1000.0     -1000.0     -1000.0     -1000.0     -1000.0    
      -1000.0     -1000.0       77.08       76.95       76.78       76.57       76.36       76.15       75.95       75.74    
        75.54       75.35       75.15       74.96       74.78       74.60       74.42       74.25       74.08       73.91    
        73.74       73.57       73.41       73.24       73.07       72.91       72.74       72.58       72.41       72.24    
        72.08       71.91       71.73       71.56       71.38       71.19       70.98       70.76       70.47       70.00    
  13  -1000.0     -1000.0     -1000.0     -1000.0     -1000.0       78.83       78.75       78.64       78.48       78.28    
        78.05       77.75       77.38       77.13       76.90       76.67       76.44       76.22       76.00       75.79    
        75.58       75.38       75.18       74.98       74.79       74.60       74.42       74.24       74.06       73.89    
        73.72       73.55       73.38       73.21       73.04       72.87       72.71       72.54       72.37       72.20    
        72.03       71.85       71.67       71.49       71.30       71.10       70.88       70.64       70.35       70.00    
  14  -1000.0     -1000.0     -1000.0       79.02       78.97       78.88       78.78       78.65       78.49       78.30    
        78.08       77.81       77.52       77.26       77.01       76.75       76.51       76.28       76.05       75.83    
        75.61       75.40       75.19       74.99       74.79       74.60       74.41       74.23       74.05       73.87    
        73.70       73.52       73.35       73.18       73.01       72.84       72.67       72.50       72.33       72.15    
        71.98       71.80       71.62       71.43       71.23       71.03       70.81       70.56       70.30       70.00    
  15  -1000.0     -1000.0       79.09       79.05       78.99       78.91       78.80       78.67       78.52       78.33    
        78.12       77.88       77.62       77.36       77.10       76.83       76.57       76.33       76.09       75.86    
        75.64       75.42       75.20       75.00       74.79       74.60       74.40       74.22       74.03       73.85    
        73.67       73.50       73.32       73.15       72.98       72.80       72.63       72.46       72.28       72.11    
        71.93       71.75       71.57       71.37       71.18       70.97       70.75       70.51       70.26       70.00    
  16  -1000.0     -1000.0       79.10       79.07       79.01       78.93       78.83       78.70       78.54       78.36    
        78.16       77.93       77.69       77.43       77.17       76.89       76.63       76.37       76.13       75.89    
        75.66       75.43       75.21       75.00       74.79       74.59       74.39       74.20       74.01       73.82    
        73.64       73.47       73.29       73.11       72.94       72.77       72.59       72.42       72.24       72.07    
        71.89       71.71       71.52       71.33       71.13       70.92       70.71       70.48       70.24       70.00    
  17  -1000.0     -1000.0       79.13       79.10       79.04       78.96       78.85       78.73       78.57       78.40    
        78.20       77.98       77.74       77.49       77.22       76.94       76.67       76.41       76.15       75.91    
        75.67       75.43       75.21       74.99       74.78       74.57       74.37       74.17       73.98       73.80    
        73.61       73.43       73.26       73.08       72.91       72.73       72.56       72.38       72.21       72.03    
        71.85       71.67       71.48       71.29       71.09       70.89       70.67       70.46       70.23       70.00    
  18  -1000.0     -1000.0       79.16       79.12       79.07       78.99       78.88       78.75       78.60       78.43    
        78.24       78.02       77.78       77.53       77.26       76.98       76.70       76.43       76.17       75.92    
        75.67       75.43       75.20       74.98       74.76       74.55       74.34       74.14       73.95       73.76    
        73.58       73.40       73.22       73.04       72.87       72.69       72.52       72.35       72.17       71.99    
        71.81       71.63       71.44       71.25       71.06       70.85       70.65       70.44       70.22       70.00    
  19  -1000.0       79.23       79.19       79.15       79.09       79.01       78.91       78.78       78.63       78.46    
        78.27       78.05       77.82       77.57       77.30       77.01       76.73       76.45       76.18       75.92    
        75.67       75.42       75.18       74.95       74.73       74.52       74.31       74.11       73.92       73.73    
        73.54       73.36       73.18       73.01       72.83       72.66       72.48       72.31       72.13       71.96    
        71.78       71.59       71.41       71.22       71.03       70.83       70.63       70.42       70.21       70.00    
  20  -1000.0       79.24       79.22       79.17       79.11       79.03       78.93       78.81       78.66       78.49    
        78.30       78.09       77.85       77.60       77.32       77.03       76.74       76.46       76.19       75.92    
        75.66       75.40       75.16       74.92       74.70       74.48       74.27       74.07       73.87       73.68    
        73.50       73.32       73.14       72.97       72.79       72.62       72.45       72.27       72.10       71.92    
        71.74       71.56       71.38       71.19       71.00       70.81       70.61       70.41       70.21       70.00    
  21  -1000.0       79.25       79.23       79.19       79.13       79.06       78.95       78.83       78.69       78.52    
        78.33       78.11       77.88       77.62       77.34       77.05       76.75       76.46       76.18       75.90    
        75.64       75.37       75.12       74.88       74.65       74.43       74.22       74.02       73.83       73.64    
        73.45       73.28       73.10       72.93       72.75       72.58       72.41       72.24       72.06       71.89    
        71.71       71.53       71.35       71.17       70.98       70.79       70.59       70.40       70.20       70.00    
  22  -1000.0       79.26       79.24       79.21       79.15       79.07       78.98       78.86       78.71       78.54    
        78.35       78.14       77.90       77.64       77.36       77.06       76.76       76.46       76.17       75.88    
        75.61       75.34       75.08       74.83       74.60       74.37       74.16       73.96       73.77       73.58    
        73.40       73.23       73.05       72.88       72.71       72.54       72.37       72.20       72.03       71.86    
        71.68       71.51       71.33       71.14       70.96       70.77       70.58       70.39       70.20       70.00    
  23  -1000.0       79.27       79.25       79.21       79.16       79.09       79.00       78.88       78.74       78.57    
        78.38       78.16       77.92       77.66       77.37       77.06       76.75       76.45       76.15       75.85    
        75.57       75.29       75.02       74.77       74.53       74.31       74.10       73.90       73.71       73.53    
        73.35       73.18       73.01       72.84       72.67       72.51       72.34       72.17       72.00       71.83    
        71.66       71.48       71.30       71.12       70.94       70.76       70.57       70.38       70.19       70.00    
  24  -1000.0       79.27       79.25       79.22       79.17       79.11       79.02       78.90       78.76       78.60    
        78.40       78.18       77.94       77.67       77.38       77.06       76.75       76.43       76.12       75.82    
        75.52       75.22       74.94       74.68       74.44       74.22       74.02       73.82       73.64       73.46    
        73.29       73.12       72.96       72.79       72.63       72.47       72.30       72.14       71.97       71.80    
        71.63       71.46       71.28       71.11       70.93       70.74       70.56       70.37       70.19       70.00    
  25  -1000.0       79.26       79.24       79.21       79.17       79.12       79.04       78.93       78.79       78.62    
        78.43       78.21       77.96       77.68       77.39       77.06       76.74       76.41       76.09       75.77    
        75.46       75.14       74.85       74.58       74.34       74.12       73.92       73.74       73.56       73.39    
        73.23       73.06       72.91       72.75       72.59       72.43       72.27       72.11       71.94       71.78    
        71.61       71.44       71.26       71.09       70.91       70.73       70.55       70.37       70.18       70.00    
  26  -1000.0       79.25       79.22       79.19       79.16       79.15       79.08       78.97       78.82       78.65    
        78.46       78.23       77.98       77.70       77.39       77.06       76.73       76.39       76.06       75.73    
        75.39       75.04       74.72       74.45       74.22       74.01       73.82       73.64       73.47       73.31    
        73.16       73.00       72.85       72.70       72.55       72.39       72.23       72.08       71.92       71.75    
        71.59       71.42       71.25       71.07       70.90       70.72       70.54       70.36       70.18       70.00    
  27  -1000.0     -1000.0       79.17       79.14       79.11       79.05       78.97       78.85       78.71       78.53    
        78.33       78.10       77.84       77.56       77.24       76.90       76.56       76.21       75.86       75.52    
        75.18       74.85       74.55       74.29       74.06       73.87       73.69       73.53       73.38       73.23    
        73.09       72.94       72.80       72.65       72.51       72.36       72.20       72.05       71.89       71.73    
        71.57       71.40       71.23       71.06       70.89       70.71       70.54       70.36       70.18       70.00    
  28  -1000.0     -1000.0       79.12       79.09       79.04       78.97       78.87       78.75       78.60       78.42    
        78.21       77.98       77.71       77.42       77.10       76.75       76.39       76.03       75.66       75.30    
        74.95       74.62       74.33       74.08       73.88       73.71       73.56       73.42       73.28       73.15    
        73.02       72.88       72.75       72.61       72.47       72.32       72.17       72.02       71.87       71.71    
        71.55       71.39       71.22       71.05       70.88       70.71       70.53       70.36       70.18       70.00    
  29  -1000.0     -1000.0       79.07       79.04       78.98       78.89       78.78       78.65       78.49       78.31    
        78.10       77.86       77.59       77.29       76.95       76.59       76.22       75.84       75.46       75.08    
        74.71       74.36       74.06       73.83       73.67       73.53       73.41       73.30       73.18       73.07    
        72.95       72.82       72.70       72.56       72.43       72.29       72.15       72.00       71.85       71.69    
        71.53       71.37       71.21       71.04       70.87       70.70       70.53       70.35       70.18       70.00    
  30  -1000.0     -1000.0       79.03       78.99       78.92       78.80       78.68       78.54       78.38       78.20    
        77.99       77.74       77.47       77.16       76.82       76.44       76.06       75.66       75.26       74.84    
        74.43       74.03       73.71       73.53       73.42       73.34       73.26       73.17       73.08       72.99    
        72.88       72.77       72.65       72.53       72.40       72.26       72.12       71.98       71.83       71.68    
        71.52       71.36       71.20       71.03       70.87       70.69       70.52       70.35       70.17       70.00    
  31  -1000.0     -1000.0       79.01       78.97       78.87       78.69       78.57       78.44       78.28       78.10    
        77.88       77.63       77.35       77.04       76.69       76.30       75.90       75.49       75.06       74.60    
        74.14       73.64       73.22       73.14       73.16       73.14       73.11       73.06       72.99       72.91    
        72.82       72.72       72.61       72.49       72.37       72.24       72.10       71.96       71.82       71.67    
        71.51       71.36       71.19       71.03       70.86       70.69       70.52       70.35       70.17       70.00    
  32  -1000.0     -1000.0     -1000.0     -1000.0     -1000.0       78.52       78.44       78.33       78.18       78.00    
        77.79       77.53       77.25       76.92       76.56       76.17       75.76       75.33       74.87       74.37    
        73.80       73.07       72.30       72.59       72.84       72.94       72.97       72.96       72.92       72.85    
        72.77       72.68       72.58       72.46       72.35       72.22       72.09       71.95       71.81       71.66    
        71.51       71.35       71.19       71.02       70.86       70.69       70.52       70.34       70.17       70.00    
  33  -1000.0     -1000.0     -1000.0     -1000.0     -1000.0       78.39       78.34       78.24       78.10       77.92    
        77.70       77.44       77.15       76.82       76.45       76.05       75.64       75.20       74.73       74.20    
        73.53       72.45       70.17       71.98       72.61       72.81       72.89       72.89       72.86       72.81    
        72.73       72.65       72.55       72.44       72.33       72.21       72.08       71.95       71.81       71.66    
        71.51       71.35       71.19       71.02       70.86       70.69       70.51       70.34       70.17       70.00    
  34  -1000.0     -1000.0     -1000.0     -1000.0     -1000.0       78.30       78.25       78.16       78.02       77.85    
        77.63       77.37       77.07       76.73       76.35       75.94       75.53       75.10       74.65       74.15    
        73.60       72.88       72.12       72.43       72.70       72.82       72.86       72.86       72.83       72.78    
        72.71       72.63       72.53       72.43       72.32       72.20       72.08       71.95       71.81       71.67    
        71.51       71.36       71.19       71.02       70.85       70.68       70.51       70.34       70.17       70.00    
  35  -1000.0     -1000.0     -1000.0     -1000.0     -1000.0       78.22       78.18       78.09       77.97       77.79    
        77.58       77.31       77.00       76.64       76.25       75.84       75.43       75.02       74.60       74.17    
        73.73       73.26       72.88       72.83       72.88       72.89       72.89       72.86       72.82       72.77    
        72.70       72.61       72.52       72.42       72.32       72.21       72.09       71.96       71.82       71.68    
        71.53       71.37       71.20       71.03       70.85       70.68       70.51       70.34       70.17       70.00    
  36  -1000.0     -1000.0     -1000.0     -1000.0     -1000.0       78.17       78.13       78.05       77.93       77.76    
        77.55       77.27       76.94       76.56       76.15       75.73       75.34       74.95       74.57       74.19    
        73.82       73.47       73.20       73.07       73.01       72.97       72.93       72.88       72.83       72.77    
        72.69       72.61       72.52       72.43       72.32       72.21       72.10       71.97       71.84       71.70    
        71.54       71.38       71.21       71.03       70.86       70.68       70.50       70.33       70.17       70.00    
  37  -1000.0     -1000.0     -1000.0     -1000.0     -1000.0       78.14       78.10       78.02       77.91       77.76    
        77.55       77.27       76.90       76.49       76.03       75.61       75.22       74.87       74.53       74.20    
        73.89       73.61       73.38       73.22       73.12       73.04       72.98       72.92       72.85       72.78    
        72.70       72.62       72.53       72.43       72.33       72.23       72.12       72.00       71.87       71.73    
        71.57       71.40       71.22       71.04       70.85       70.67       70.49       70.32       70.16       70.00    
  38  -1000.0     -1000.0     -1000.0     -1000.0     -1000.0       78.12       78.07       78.01       77.91       77.78    
        77.59       77.33       76.89       76.42       75.86       75.43       75.08       74.77       74.48       74.19    
        73.93       73.69       73.49       73.33       73.21       73.11       73.03       72.95       72.87       72.80    
        72.71       72.63       72.54       72.45       72.35       72.25       72.14       72.03       71.91       71.78    
        71.62       71.43       71.24       71.04       70.85       70.66       70.48       70.31       70.15       70.00    
  39  -1000.0     -1000.0     -1000.0     -1000.0     -1000.0     -1000.0       78.05       78.01       77.93       77.83    
        77.69       77.52     -1000.0     -1000.0       75.53       75.18       74.90       74.65       74.41       74.17    
        73.94       73.74       73.55       73.40       73.27       73.16       73.07       72.98       72.90       72.82    
        72.73       72.65       72.56       72.46       72.37       72.27       72.17       72.07       71.96       71.85    
        71.70       71.46       71.25       71.05       70.85       70.65       70.44       70.28       70.13       70.00    
  40  -1000.0     -1000.0     -1000.0     -1000.0     -1000.0     -1000.0       78.04       78.01       77.96       77.89    
        77.80     -1000.0     -1000.0     -1000.0     -1000.0       74.83       74.70       74.52       74.33       74.13    
        73.94       73.75       73.59       73.44       73.31       73.20       73.10       73.01       72.92       72.84    
        72.75       72.67       72.58       72.48       72.39       72.30       72.21       72.12       72.03       71.94    
        71.88     -1000.0     -1000.0     -1000.0     -1000.0     -1000.0       70.34       70.24       70.11       70.00    
  41  -1000.0     -1000.0     -1000.0     -1000.0     -1000.0     -1000.0     -1000.0       78.01       77.98       77.95    
      -1000.0     -1000.0     -1000.0     -1000.0     -1000.0       74.62       74.54       74.41       74.26       74.09    
        73.92       73.76       73.60       73.46       73.33       73.22       73.12       73.03       72.94       72.86    
        72.77       72.69       72.60       72.50       72.41       72.32       72.24       72.16       72.08       72.02    
        71.99     -1000.0     -1000.0     -1000.0     -1000.0     -1000.0     -1000.0     -1000.0       70.05       70.00    
  42  -1000.0     -1000.0     -1000.0     -1000.0     -1000.0     -1000.0     -1000.0     -1000.0     -1000.0     -1000.0    
      -1000.0     -1000.0     -1000.0     -1000.0     -1000.0       74.49       74.42       74.32       74.20       74.05    
        73.90       73.75       73.60       73.46       73.34       73.23       73.14       73.05       72.96       72.88    
        72.80       72.71       72.62       72.52       72.43       72.35       72.27       72.19       72.13       72.08    
        72.05     -1000.0     -1000.0     -1000.0     -1000.0     -1000.0     -1000.0     -1000.0     -1000.0     -1000.0    
  43  -1000.0     -1000.0     -1000.0     -1000.0     -1000.0     -1000.0     -1000.0     -1000.0     -1000.0     -1000.0    
      -1000.0     -1000.0     -1000.0     -1000.0     -1000.0       74.42       74.35       74.26       74.15       74.02    
        73.88       73.73       73.59       73.45       73.34       73.24       73.14       73.06       72.98       72.91    
        72.83       72.74       72.64       72.54       72.45       72.36       72.29       72.22       72.16       72.12    
        72.10     -1000.0     -1000.0     -1000.0     -1000.0     -1000.0     -1000.0     -1000.0     -1000.0     -1000.0    
  44  -1000.0     -1000.0     -1000.0     -1000.0     -1000.0     -1000.0     -1000.0     -1000.0     -1000.0     -1000.0    
      -1000.0     -1000.0     -1000.0     -1000.0     -1000.0     -1000.0       74.29       74.23       74.13       74.01    
        73.87       73.72       73.55       73.43       73.32       73.23       73.14       73.07       73.00       72.93    
        72.86       72.78       72.66       72.55       72.46       72.37       72.30       72.23       72.18       72.14    
        72.12     -1000.0     -1000.0     -1000.0     -1000.0     -1000.0     -1000.0     -1000.0     -1000.0     -1000.0    
  45  -1000.0     -1000.0     -1000.0     -1000.0     -1000.0     -1000.0     -1000.0     -1000.0     -1000.0     -1000.0    
      -1000.0     -1000.0     -1000.0     -1000.0     -1000.0     -1000.0     -1000.0     -1000.0     -1000.0     -1000.0    
      -1000.0     -1000.0       73.48       73.40       73.29       73.20       73.13       73.07       73.01       72.96    
        72.91       72.87     -1000.0     -1000.0     -1000.0     -1000.0     -1000.0     -1000.0     -1000.0     -1000.0    
      -1000.0     -1000.0     -1000.0     -1000.0     -1000.0     -1000.0     -1000.0     -1000.0     -1000.0     -1000.0    
  46  -1000.0     -1000.0     -1000.0     -1000.0     -1000.0     -1000.0     -1000.0     -1000.0     -1000.0     -1000.0    
      -1000.0     -1000.0     -1000.0     -1000.0     -1000.0     -1000.0     -1000.0     -1000.0     -1000.0     -1000.0    
      -1000.0     -1000.0     -1000.0     -1000.0       73.23       73.17       73.11       73.07       73.02       72.98    
        72.95       72.92     -1000.0     -1000.0     -1000.0     -1000.0     -1000.0     -1000.0     -1000.0     -1000.0    
      -1000.0     -1000.0     -1000.0     -1000.0     -1000.0     -1000.0     -1000.0     -1000.0     -1000.0     -1000.0    
  47  -1000.0     -1000.0     -1000.0     -1000.0     -1000.0     -1000.0     -1000.0     -1000.0     -1000.0     -1000.0    
      -1000.0     -1000.0     -1000.0     -1000.0     -1000.0     -1000.0     -1000.0     -1000.0     -1000.0     -1000.0    
      -1000.0     -1000.0     -1000.0     -1000.0     -1000.0       73.12       73.09       73.06       73.03       73.00    
        72.97       72.95     -1000.0     -1000.0     -1000.0     -1000.0     -1000.0     -1000.0     -1000.0     -1000.0    
      -1000.0     -1000.0     -1000.0     -1000.0     -1000.0     -1000.0     -1000.0     -1000.0     -1000.0     -1000.0    
  48  -1000.0     -1000.0     -1000.0     -1000.0     -1000.0     -1000.0     -1000.0     -1000.0     -1000.0     -1000.0    
      -1000.0     -1000.0     -1000.0     -1000.0     -1000.0     -1000.0     -1000.0     -1000.0     -1000.0     -1000.0    
      -1000.0     -1000.0     -1000.0     -1000.0     -1000.0       73.09       73.08       73.06       73.04       73.01    
        72.99     -1000.0     -1000.0     -1000.0     -1000.0     -1000.0     -1000.0     -1000.0     -1000.0     -1000.0    
      -1000.0     -1000.0     -1000.0     -1000.0     -1000.0     -1000.0     -1000.0     -1000.0     -1000.0     -1000.0    
  49  -1000.0     -1000.0     -1000.0     -1000.0     -1000.0     -1000.0     -1000.0     -1000.0     -1000.0     -1000.0    
      -1000.0     -1000.0     -1000.0     -1000.0     -1000.0     -1000.0     -1000.0     -1000.0     -1000.0     -1000.0    
      -1000.0     -1000.0     -1000.0     -1000.0     -1000.0       73.08       73.07       73.06       73.04       73.03    
      -1000.0     -1000.0     -1000.0     -1000.0     -1000.0     -1000.0     -1000.0     -1000.0     -1000.0     -1000.0    
      -1000.0     -1000.0     -1000.0     -1000.0     -1000.0     -1000.0     -1000.0     -1000.0     -1000.0     -1000.0    
  50  -1000.0     -1000.0     -1000.0     -1000.0     -1000.0     -1000.0     -1000.0     -1000.0     -1000.0     -1000.0    
      -1000.0     -1000.0     -1000.0     -1000.0     -1000.0     -1000.0     -1000.0     -1000.0     -1000.0     -1000.0    
      -1000.0     -1000.0     -1000.0     -1000.0     -1000.0     -1000.0     -1000.0     -1000.0     -1000.0     -1000.0    
      -1000.0     -1000.0     -1000.0     -1000.0     -1000.0     -1000.0     -1000.0     -1000.0     -1000.0     -1000.0    
      -1000.0     -1000.0     -1000.0     -1000.0     -1000.0     -1000.0     -1000.0     -1000.0     -1000.0     -1000.0    
1
              HEAD IN LAYER   2 AT END OF TIME STEP   1 IN STRESS PERIOD    1
  ---------------------------------------------------------------------------

            1           2           3           4           5           6           7           8           9          10
           11          12          13          14          15          16          17          18          19          20
           21          22          23          24          25          26          27          28          29          30
           31          32          33          34          35          36          37          38          39          40
           41          42          43          44          45          46          47          48          49          50
 ........................................................................................................................
   1  -1000.0     -1000.0     -1000.0     -1000.0     -1000.0     -1000.0     -1000.0     -1000.0     -1000.0     -1000.0    
      -1000.0     -1000.0     -1000.0     -1000.0     -1000.0     -1000.0     -1000.0     -1000.0     -1000.0     -1000.0    
      -1000.0     -1000.0     -1000.0     -1000.0     -1000.0     -1000.0     -1000.0     -1000.0     -1000.0     -1000.0    
      -1000.0     -1000.0     -1000.0     -1000.0     -1000.0     -1000.0     -1000.0     -1000.0     -1000.0     -1000.0    
      -1000.0     -1000.0     -1000.0     -1000.0     -1000.0     -1000.0     -1000.0     -1000.0     -1000.0     -1000.0    
   2  -1000.0     -1000.0     -1000.0     -1000.0     -1000.0     -1000.0     -1000.0     -1000.0     -1000.0     -1000.0    
      -1000.0     -1000.0     -1000.0     -1000.0     -1000.0     -1000.0     -1000.0     -1000.0     -1000.0     -1000.0    
      -1000.0     -1000.0     -1000.0       74.53       74.48       74.40       74.31       74.21       74.11       74.01    
        73.91       73.82       73.74       73.69     -1000.0     -1000.0     -1000.0     -1000.0     -1000.0     -1000.0    
      -1000.0     -1000.0     -1000.0     -1000.0     -1000.0     -1000.0     -1000.0     -1000.0     -1000.0     -1000.0    
   3  -1000.0     -1000.0     -1000.0     -1000.0     -1000.0     -1000.0     -1000.0     -1000.0     -1000.0     -1000.0    
      -1000.0     -1000.0     -1000.0     -1000.0     -1000.0     -1000.0     -1000.0     -1000.0     -1000.0     -1000.0    
      -1000.0     -1000.0       74.65       74.58       74.50       74.42       74.32       74.22       74.11       74.00    
        73.90       73.80       73.71       73.64       73.57     -1000.0     -1000.0     -1000.0     -1000.0     -1000.0    
      -1000.0     -1000.0     -1000.0     -1000.0     -1000.0     -1000.0     -1000.0     -1000.0     -1000.0     -1000.0    
   4  -1000.0     -1000.0     -1000.0     -1000.0     -1000.0     -1000.0     -1000.0     -1000.0     -1000.0     -1000.0    
      -1000.0     -1000.0     -1000.0     -1000.0     -1000.0     -1000.0     -1000.0     -1000.0     -1000.0     -1000.0    
      -1000.0     -1000.0       74.71       74.64       74.54       74.44       74.33       74.22       74.11       74.00    
        73.88       73.78       73.67       73.58       73.50     -1000.0     -1000.0     -1000.0     -1000.0     -1000.0    
      -1000.0     -1000.0     -1000.0     -1000.0     -1000.0     -1000.0     -1000.0     -1000.0     -1000.0     -1000.0    
   5  -1000.0     -1000.0     -1000.0     -1000.0     -1000.0     -1000.0     -1000.0     -1000.0     -1000.0     -1000.0    
      -1000.0     -1000.0     -1000.0     -1000.0     -1000.0     -1000.0     -1000.0       75.57       75.50       75.39    
        75.24       75.07       74.86       74.72       74.59       74.47       74.35       74.23       74.11       73.99    
        73.87       73.75       73.63       73.50       73.36       73.15       72.96       72.79       72.64       72.49    
        72.36       72.25       72.15       72.09     -1000.0     -1000.0     -1000.0     -1000.0     -1000.0     -1000.0    
   6  -1000.0     -1000.0     -1000.0     -1000.0     -1000.0     -1000.0     -1000.0     -1000.0     -1000.0     -1000.0    
      -1000.0     -1000.0     -1000.0     -1000.0     -1000.0     -1000.0     -1000.0       75.64       75.55       75.42    
        75.27       75.10       74.93       74.78       74.63       74.50       74.37       74.24       74.11       73.98    
        73.85       73.72       73.58       73.44       73.29       73.11       72.94       72.78       72.62       72.48    
        72.34       72.22       72.12       72.04       71.96     -1000.0     -1000.0     -1000.0     -1000.0     -1000.0    
   7  -1000.0     -1000.0     -1000.0     -1000.0     -1000.0     -1000.0     -1000.0     -1000.0     -1000.0     -1000.0    
      -1000.0     -1000.0     -1000.0       76.45       76.37       76.22       76.03       75.79       75.63       75.47    
        75.31       75.15       74.98       74.82       74.67       74.53       74.38       74.24       74.10       73.97    
        73.83       73.69       73.55       73.40       73.24       73.08       72.92       72.75       72.60       72.45    
        72.31       72.19       72.07       71.97       71.89     -1000.0     -1000.0     -1000.0     -1000.0     -1000.0    
   8  -1000.0     -1000.0     -1000.0     -1000.0     -1000.0     -1000.0     -1000.0     -1000.0     -1000.0     -1000.0    
      -1000.0     -1000.0       76.59       76.52       76.41       76.25       76.07       75.88       75.70       75.53    
        75.36       75.19       75.02       74.86       74.70       74.55       74.40       74.25       74.10       73.96    
        73.81       73.66       73.52       73.36       73.21       73.05       72.88       72.72       72.57       72.42    
        72.27       72.14       72.00       71.87       71.73       71.53       71.40       71.32     -1000.0     -1000.0    
   9  -1000.0     -1000.0     -1000.0     -1000.0     -1000.0     -1000.0     -1000.0     -1000.0     -1000.0     -1000.0    
      -1000.0     -1000.0       76.65       76.58       76.47       76.31       76.13       75.95       75.77       75.59    
        75.41       75.24       75.06       74.89       74.73       74.57       74.41       74.25       74.10       73.95    
        73.79       73.64       73.49       73.33       73.17       73.01       72.85       72.69       72.53       72.38    
        72.23       72.08       71.93       71.79       71.63       71.47       71.34       71.25     -1000.0     -1000.0    
  10  -1000.0     -1000.0     -1000.0     -1000.0     -1000.0     -1000.0     -1000.0     -1000.0     -1000.0     -1000.0    
      -1000.0     -1000.0       76.74       76.67       76.55       76.39       76.20       76.02       75.83       75.64    
        75.46       75.28       75.10       74.92       74.75       74.58       74.42       74.25       74.09       73.93    
        73.78       73.62       73.46       73.30       73.14       72.98       72.82       72.65       72.49       72.33    
        72.18       72.02       71.87       71.71       71.55       71.38       71.23       71.09       70.93     -1000.0    
  11  -1000.0     -1000.0     -1000.0     -1000.0     -1000.0     -1000.0     -1000.0     -1000.0     -1000.0     -1000.0    
      -1000.0     -1000.0       76.88       76.80       76.66       76.47       76.28       76.08       75.89       75.69    
        75.50       75.31       75.13       74.94       74.77       74.59       74.42       74.25       74.09       73.92    
        73.76       73.59       73.43       73.27       73.11       72.94       72.78       72.62       72.45       72.29    
        72.13       71.96       71.80       71.63       71.46       71.28       71.11       70.93       70.78     -1000.0    
  12  -1000.0     -1000.0     -1000.0     -1000.0     -1000.0     -1000.0     -1000.0     -1000.0     -1000.0     -1000.0    
      -1000.0     -1000.0       77.08       76.95       76.78       76.57       76.36       76.15       75.95       75.74    
        75.54       75.35       75.15       74.96       74.78       74.60       74.42       74.25       74.08       73.91    
        73.74       73.57       73.41       73.24       73.07       72.91       72.74       72.58       72.41       72.24    
        72.08       71.91       71.73       71.56       71.38       71.19       70.98       70.76       70.47       70.00    
  13  -1000.0     -1000.0     -1000.0     -1000.0     -1000.0       78.83       78.75       78.64       78.48       78.28    
        78.05       77.75       77.38       77.13       76.90       76.67       76.44       76.22       76.00       75.79    
        75.58       75.38       75.18       74.98       74.79       74.60       74.42       74.24       74.06       73.89    
        73.72       73.55       73.38       73.21       73.04       72.87       72.71       72.54       72.37       72.20    
        72.03       71.85       71.67       71.49       71.30       71.10       70.88       70.64       70.35       70.00    
  14  -1000.0     -1000.0     -1000.0       79.02       78.97       78.88       78.78       78.65       78.49       78.30    
        78.08       77.81       77.52       77.26       77.01       76.75       76.51       76.28       76.05       75.83    
        75.61       75.40       75.19       74.99       74.79       74.60       74.41       74.23       74.05       73.87    
        73.70       73.52       73.35       73.18       73.01       72.84       72.67       72.50       72.33       72.15    
        71.98       71.80       71.62       71.43       71.23       71.03       70.81       70.56       70.30       70.00    
  15  -1000.0     -1000.0       79.09       79.05       78.99       78.91       78.80       78.67       78.52       78.33    
        78.12       77.88       77.62       77.36       77.10       76.83       76.57       76.33       76.09       75.86    
        75.64       75.42       75.20       75.00       74.79       74.60       74.40       74.22       74.03       73.85    
        73.67       73.50       73.32       73.15       72.98       72.80       72.63       72.46       72.28       72.11    
        71.93       71.75       71.57       71.37       71.18       70.97       70.75       70.51       70.26       70.00    
  16  -1000.0     -1000.0       79.10       79.07       79.01       78.93       78.83       78.70       78.54       78.36    
        78.16       77.93       77.69       77.43       77.17       76.89       76.63       76.37       76.13       75.89    
        75.66       75.43       75.21       75.00       74.79       74.59       74.39       74.20       74.01       73.82    
        73.64       73.47       73.29       73.11       72.94       72.77       72.59       72.42       72.24       72.07    
        71.89       71.71       71.52       71.33       71.13       70.92       70.71       70.48       70.24       70.00    
  17  -1000.0     -1000.0       79.13       79.10       79.04       78.96       78.85       78.73       78.57       78.40    
        78.20       77.98       77.74       77.49       77.22       76.94       76.67       76.41       76.15       75.91    
        75.67       75.43       75.21       74.99       74.78       74.57       74.37       74.17       73.98       73.80    
        73.61       73.43       73.26       73.08       72.91       72.73       72.56       72.38       72.21       72.03    
        71.85       71.67       71.48       71.29       71.09       70.89       70.67       70.46       70.23       70.00    
  18  -1000.0     -1000.0       79.16       79.12       79.07       78.98       78.88       78.75       78.60       78.43    
        78.24       78.02       77.78       77.53       77.26       76.98       76.70       76.43       76.17       75.92    
        75.67       75.43       75.20       74.98       74.76       74.55       74.34       74.14       73.95       73.76    
        73.58       73.40       73.22       73.04       72.87       72.69       72.52       72.35       72.17       71.99    
        71.81       71.63       71.44       71.25       71.06       70.85       70.65       70.44       70.22       70.00    
  19  -1000.0       79.23       79.19       79.15       79.09       79.01       78.91       78.78       78.63       78.46    
        78.27       78.05       77.82       77.57       77.30       77.01       76.73       76.45       76.18       75.92    
        75.67       75.42       75.18       74.95       74.73       74.52       74.31       74.11       73.92       73.73    
        73.54       73.36       73.18       73.01       72.83       72.66       72.48       72.31       72.13       71.96    
        71.78       71.59       71.41       71.22       71.03       70.83       70.63       70.42       70.21       70.00    
  20  -1000.0       79.24       79.22       79.17       79.11       79.03       78.93       78.81       78.66       78.49    
        78.30       78.09       77.85       77.60       77.32       77.03       76.74       76.46       76.19       75.92    
        75.66       75.40       75.16       74.92       74.70       74.48       74.27       74.07       73.87       73.68    
        73.50       73.32       73.14       72.97       72.79       72.62       72.45       72.27       72.10       71.92    
        71.74       71.56       71.38       71.19       71.00       70.81       70.61       70.41       70.21       70.00    
  21  -1000.0       79.25       79.23       79.19       79.13       79.05       78.95       78.83       78.69       78.52    
        78.33       78.11       77.88       77.62       77.34       77.05       76.75       76.46       76.18       75.90    
        75.64       75.37       75.12       74.88       74.65       74.43       74.22       74.02       73.83       73.64    
        73.45       73.28       73.10       72.93       72.75       72.58       72.41       72.24       72.06       71.89    
        71.71       71.53       71.35       71.17       70.98       70.79       70.59       70.40       70.20       70.00    
  22  -1000.0       79.26       79.24       79.21       79.15       79.07       78.98       78.86       78.71       78.54    
        78.35       78.14       77.90       77.64       77.36       77.06       76.76       76.46       76.17       75.88    
        75.61       75.34       75.08       74.83       74.60       74.37       74.16       73.96       73.77       73.58    
        73.40       73.23       73.05       72.88       72.71       72.54       72.37       72.20       72.03       71.86    
        71.68       71.51       71.33       71.14       70.96       70.77       70.58       70.39       70.20       70.00    
  23  -1000.0       79.27       79.25       79.21       79.16       79.09       79.00       78.88       78.74       78.57    
        78.38       78.16       77.92       77.66       77.37       77.06       76.75       76.45       76.15       75.85    
        75.57       75.29       75.02       74.77       74.53       74.31       74.10       73.90       73.71       73.53    
        73.35       73.18       73.01       72.84       72.67       72.51       72.34       72.17       72.00       71.83    
        71.66       71.48       71.30       71.12       70.94       70.76       70.57       70.38       70.19       70.00    
  24  -1000.0       79.27       79.25       79.22       79.17       79.11       79.02       78.90       78.76       78.60    
        78.40       78.18       77.94       77.67       77.38       77.06       76.75       76.43       76.12       75.82    
        75.52       75.22       74.94       74.68       74.44       74.22       74.02       73.82       73.64       73.46    
        73.29       73.12       72.96       72.79       72.63       72.47       72.30       72.14       71.97       71.80    
        71.63       71.46       71.28       71.11       70.93       70.74       70.56       70.37       70.19       70.00    
  25  -1000.0       79.26       79.24       79.21       79.17       79.12       79.04       78.93       78.79       78.62    
        78.43       78.21       77.96       77.68       77.39       77.06       76.74       76.41       76.09       75.77    
        75.46       75.14       74.85       74.58       74.34       74.12       73.92       73.74       73.56       73.39    
        73.23       73.06       72.91       72.75       72.59       72.43       72.27       72.11       71.94       71.78    
        71.61       71.44       71.26       71.09       70.91       70.73       70.55       70.37       70.18       70.00    
  26  -1000.0       79.25       79.22       79.19       79.16       79.15       79.08       78.97       78.82       78.65    
        78.46       78.23       77.98       77.70       77.39       77.06       76.73       76.39       76.06       75.73    
        75.39       75.04       74.72       74.45       74.22       74.01       73.82       73.64       73.47       73.31    
        73.16       73.00       72.85       72.70       72.55       72.39       72.23       72.08       71.92       71.75    
        71.59       71.42       71.25       71.07       70.90       70.72       70.54       70.36       70.18       70.00    
  27  -1000.0     -1000.0       79.17       79.14       79.11       79.05       78.97       78.85       78.71       78.53    
        78.33       78.10       77.84       77.56       77.24       76.90       76.56       76.21       75.86       75.52    
        75.18       74.85       74.55       74.29       74.06       73.87       73.69       73.53       73.38       73.23    
        73.09       72.94       72.80       72.65       72.51       72.36       72.20       72.05       71.89       71.73    
        71.57       71.40       71.23       71.06       70.89       70.71       70.54       70.36       70.18       70.00    
  28  -1000.0     -1000.0       79.12       79.09       79.04       78.97       78.87       78.75       78.60       78.42    
        78.21       77.98       77.71       77.42       77.10       76.75       76.39       76.03       75.66       75.30    
        74.95       74.62       74.33       74.08       73.88       73.71       73.56       73.42       73.28       73.15    
        73.02       72.88       72.75       72.61       72.47       72.32       72.17       72.02       71.87       71.71    
        71.55       71.39       71.22       71.05       70.88       70.71       70.53       70.36       70.18       70.00    
  29  -1000.0     -1000.0       79.07       79.04       78.98       78.89       78.78       78.65       78.49       78.31    
        78.10       77.86       77.59       77.29       76.95       76.59       76.22       75.84       75.46       75.08    
        74.71       74.36       74.06       73.83       73.67       73.53       73.41       73.30       73.18       73.07    
        72.95       72.82       72.70       72.56       72.43       72.29       72.15       72.00       71.85       71.69    
        71.53       71.37       71.21       71.04       70.87       70.70       70.53       70.35       70.18       70.00    
  30  -1000.0     -1000.0       79.03       78.99       78.92       78.80       78.68       78.54       78.38       78.20    
        77.99       77.74       77.47       77.16       76.82       76.44       76.06       75.66       75.26       74.84    
        74.43       74.03       73.71       73.53       73.42       73.34       73.26       73.17       73.08       72.99    
        72.88       72.77       72.65       72.53       72.40       72.26       72.12       71.98       71.83       71.68    
        71.52       71.36       71.20       71.03       70.87       70.69       70.52       70.35       70.17       70.00    
  31  -1000.0     -1000.0       79.01       78.97       78.87       78.69       78.57       78.44       78.28       78.10    
        77.88       77.63       77.35       77.04       76.69       76.30       75.90       75.49       75.06       74.60    
        74.14       73.64       73.22       73.14       73.16       73.14       73.11       73.06       72.99       72.91    
        72.82       72.72       72.61       72.49       72.37       72.24       72.10       71.96       71.82       71.67    
        71.51       71.36       71.19       71.03       70.86       70.69       70.52       70.35       70.17       70.00    
  32  -1000.0     -1000.0     -1000.0     -1000.0     -1000.0       78.52       78.44       78.33       78.18       78.00    
        77.79       77.53       77.25       76.92       76.56       76.17       75.76       75.33       74.87       74.37    
        73.80       73.07       72.30       72.59       72.84       72.94       72.97       72.96       72.92       72.85    
        72.77       72.68       72.58       72.46       72.35       72.22       72.09       71.95       71.81       71.66    
        71.51       71.35       71.19       71.02       70.86       70.69       70.52       70.34       70.17       70.00    
  33  -1000.0     -1000.0     -1000.0     -1000.0     -1000.0       78.39       78.34       78.24       78.10       77.92    
        77.70       77.44       77.15       76.82       76.45       76.05       75.64       75.20       74.73       74.20    
        73.53       72.45       70.20       71.98       72.61       72.81       72.89       72.89       72.86       72.81    
        72.73       72.65       72.55       72.44       72.33       72.21       72.08       71.95       71.81       71.66    
        71.51       71.35       71.19       71.02       70.86       70.69       70.51       70.34       70.17       70.00    
  34  -1000.0     -1000.0     -1000.0     -1000.0     -1000.0       78.30       78.25       78.16       78.02       77.85    
        77.63       77.37       77.07       76.73       76.35       75.94       75.53       75.10       74.65       74.15    
        73.60       72.88       72.12       72.43       72.70       72.82       72.86       72.86       72.83       72.78    
        72.71       72.63       72.53       72.43       72.32       72.20       72.08       71.95       71.81       71.67    
        71.51       71.36       71.19       71.02       70.85       70.68       70.51       70.34       70.17       70.00    
  35  -1000.0     -1000.0     -1000.0     -1000.0     -1000.0       78.22       78.18       78.09       77.97       77.79    
        77.58       77.31       77.00       76.64       76.25       75.84       75.43       75.02       74.60       74.17    
        73.73       73.26       72.88       72.83       72.88       72.89       72.89       72.86       72.82       72.77    
        72.70       72.61       72.52       72.42       72.32       72.21       72.09       71.96       71.82       71.68    
        71.53       71.37       71.20       71.03       70.85       70.68       70.51       70.34       70.17       70.00    
  36  -1000.0     -1000.0     -1000.0     -1000.0     -1000.0       78.17       78.13       78.05       77.93       77.76    
        77.55       77.27       76.94       76.56       76.15       75.73       75.34       74.95       74.57       74.19    
        73.82       73.47       73.20       73.07       73.01       72.97       72.93       72.88       72.83       72.77    
        72.69       72.61       72.52       72.43       72.32       72.21       72.10       71.97       71.84       71.70    
        71.54       71.38       71.21       71.03       70.86       70.68       70.50       70.33       70.17       70.00    
  37  -1000.0     -1000.0     -1000.0     -1000.0     -1000.0       78.14       78.10       78.02       77.91       77.76    
        77.55       77.27       76.90       76.49       76.03       75.61       75.22       74.87       74.53       74.20    
        73.89       73.61       73.38       73.22       73.12       73.04       72.98       72.92       72.85       72.78    
        72.70       72.62       72.53       72.43       72.33       72.23       72.12       72.00       71.87       71.73    
        71.57       71.40       71.22       71.04       70.85       70.67       70.49       70.32       70.16       70.00    
  38  -1000.0     -1000.0     -1000.0     -1000.0     -1000.0       78.12       78.07       78.01       77.91       77.78    
        77.59       77.33       76.89       76.42       75.86       75.43       75.08       74.77       74.48       74.19    
        73.93       73.69       73.49       73.33       73.21       73.11       73.03       72.95       72.87       72.80    
        72.71       72.63       72.54       72.45       72.35       72.25       72.14       72.03       71.91       71.78    
        71.62       71.43       71.24       71.04       70.85       70.66       70.48       70.31       70.15       70.00    
  39  -1000.0     -1000.0     -1000.0     -1000.0     -1000.0     -1000.0       78.05       78.01       77.93       77.83    
        77.69       77.52     -1000.0     -1000.0       75.53       75.18       74.90       74.65       74.41       74.17    
        73.94       73.74       73.55       73.40       73.27       73.16       73.07       72.98       72.90       72.82    
        72.73       72.65       72.56       72.46       72.37       72.27       72.17       72.07       71.96       71.85    
        71.70       71.46       71.25       71.05       70.85       70.65       70.44       70.28       70.13       70.00    
  40  -1000.0     -1000.0     -1000.0     -1000.0     -1000.0     -1000.0       78.04       78.01       77.96       77.89    
        77.80     -1000.0     -1000.0     -1000.0     -1000.0       74.83       74.70       74.52       74.33       74.13    
        73.94       73.75       73.59       73.44       73.31       73.20       73.10       73.01       72.92       72.84    
        72.75       72.67       72.58       72.48       72.39       72.30       72.21       72.12       72.03       71.94    
        71.88     -1000.0     -1000.0     -1000.0     -1000.0     -1000.0       70.34       70.24       70.11       70.00    
  41  -1000.0     -1000.0     -1000.0     -1000.0     -1000.0     -1000.0     -1000.0       78.01       77.98       77.95    
      -1000.0     -1000.0     -1000.0     -1000.0     -1000.0       74.62       74.54       74.41       74.26       74.09    
        73.92       73.76       73.60       73.46       73.33       73.22       73.12       73.03       72.94       72.86    
        72.77       72.69       72.60       72.50       72.41       72.32       72.24       72.16       72.08       72.02    
        71.99     -1000.0     -1000.0     -1000.0     -1000.0     -1000.0     -1000.0     -1000.0       70.05       70.00    
  42  -1000.0     -1000.0     -1000.0     -1000.0     -1000.0     -1000.0     -1000.0     -1000.0     -1000.0     -1000.0    
      -1000.0     -1000.0     -1000.0     -1000.0     -1000.0       74.49       74.42       74.32       74.20       74.05    
        73.90       73.75       73.60       73.46       73.34       73.23       73.14       73.05       72.96       72.88    
        72.80       72.71       72.62       72.52       72.43       72.35       72.27       72.19       72.13       72.08    
        72.05     -1000.0     -1000.0     -1000.0     -1000.0     -1000.0     -1000.0     -1000.0     -1000.0     -1000.0    
  43  -1000.0     -1000.0     -1000.0     -1000.0     -1000.0     -1000.0     -1000.0     -1000.0     -1000.0     -1000.0    
      -1000.0     -1000.0     -1000.0     -1000.0     -1000.0       74.42       74.35       74.26       74.15       74.02    
        73.88       73.73       73.59       73.45       73.34       73.24       73.14       73.06       72.98       72.91    
        72.83       72.74       72.64       72.54       72.45       72.36       72.29       72.22       72.16       72.12    
        72.10     -1000.0     -1000.0     -1000.0     -1000.0     -1000.0     -1000.0     -1000.0     -1000.0     -1000.0    
  44  -1000.0     -1000.0     -1000.0     -1000.0     -1000.0     -1000.0     -1000.0     -1000.0     -1000.0     -1000.0    
      -1000.0     -1000.0     -1000.0     -1000.0     -1000.0     -1000.0       74.29       74.23       74.13       74.01    
        73.87       73.72       73.55       73.43       73.32       73.23       73.14       73.07       73.00       72.93    
        72.86       72.78       72.66       72.55       72.46       72.37       72.30       72.23       72.18       72.14    
        72.12     -1000.0     -1000.0     -1000.0     -1000.0     -1000.0     -1000.0     -1000.0     -1000.0     -1000.0    
  45  -1000.0     -1000.0     -1000.0     -1000.0     -1000.0     -1000.0     -1000.0     -1000.0     -1000.0     -1000.0    
      -1000.0     -1000.0     -1000.0     -1000.0     -1000.0     -1000.0     -1000.0     -1000.0     -1000.0     -1000.0    
      -1000.0     -1000.0       73.48       73.40       73.29       73.20       73.13       73.07       73.01       72.96    
        72.91       72.87     -1000.0     -1000.0     -1000.0     -1000.0     -1000.0     -1000.0     -1000.0     -1000.0    
      -1000.0     -1000.0     -1000.0     -1000.0     -1000.0     -1000.0     -1000.0     -1000.0     -1000.0     -1000.0    
  46  -1000.0     -1000.0     -1000.0     -1000.0     -1000.0     -1000.0     -1000.0     -1000.0     -1000.0     -1000.0    
      -1000.0     -1000.0     -1000.0     -1000.0     -1000.0     -1000.0     -1000.0     -1000.0     -1000.0     -1000.0    
      -1000.0     -1000.0     -1000.0     -1000.0       73.23       73.17       73.11       73.07       73.02       72.98    
        72.95       72.92     -1000.0     -1000.0     -1000.0     -1000.0     -1000.0     -1000.0     -1000.0     -1000.0    
      -1000.0     -1000.0     -1000.0     -1000.0     -1000.0     -1000.0     -1000.0     -1000.0     -1000.0     -1000.0    
  47  -1000.0     -1000.0     -1000.0     -1000.0     -1000.0     -1000.0     -1000.0     -1000.0     -1000.0     -1000.0    
      -1000.0     -1000.0     -1000.0     -1000.0     -1000.0     -1000.0     -1000.0     -1000.0     -1000.0     -1000.0    
      -1000.0     -1000.0     -1000.0     -1000.0     -1000.0       73.12       73.09       73.06       73.03       73.00    
        72.97       72.95     -1000.0     -1000.0     -1000.0     -1000.0     -1000.0     -1000.0     -1000.0     -1000.0    
      -1000.0     -1000.0     -1000.0     -1000.0     -1000.0     -1000.0     -1000.0     -1000.0     -1000.0     -1000.0    
  48  -1000.0     -1000.0     -1000.0     -1000.0     -1000.0     -1000.0     -1000.0     -1000.0     -1000.0     -1000.0    
      -1000.0     -1000.0     -1000.0     -1000.0     -1000.0     -1000.0     -1000.0     -1000.0     -1000.0     -1000.0    
      -1000.0     -1000.0     -1000.0     -1000.0     -1000.0       73.09       73.08       73.06       73.04       73.01    
        72.99     -1000.0     -1000.0     -1000.0     -1000.0     -1000.0     -1000.0     -1000.0     -1000.0     -1000.0    
      -1000.0     -1000.0     -1000.0     -1000.0     -1000.0     -1000.0     -1000.0     -1000.0     -1000.0     -1000.0    
  49  -1000.0     -1000.0     -1000.0     -1000.0     -1000.0     -1000.0     -1000.0     -1000.0     -1000.0     -1000.0    
      -1000.0     -1000.0     -1000.0     -1000.0     -1000.0     -1000.0     -1000.0     -1000.0     -1000.0     -1000.0    
      -1000.0     -1000.0     -1000.0     -1000.0     -1000.0       73.08       73.07       73.06       73.04       73.03    
      -1000.0     -1000.0     -1000.0     -1000.0     -1000.0     -1000.0     -1000.0     -1000.0     -1000.0     -1000.0    
      -1000.0     -1000.0     -1000.0     -1000.0     -1000.0     -1000.0     -1000.0     -1000.0     -1000.0     -1000.0    
  50  -1000.0     -1000.0     -1000.0     -1000.0     -1000.0     -1000.0     -1000.0     -1000.0     -1000.0     -1000.0    
      -1000.0     -1000.0     -1000.0     -1000.0     -1000.0     -1000.0     -1000.0     -1000.0     -1000.0     -1000.0    
      -1000.0     -1000.0     -1000.0     -1000.0     -1000.0     -1000.0     -1000.0     -1000.0     -1000.0     -1000.0    
      -1000.0     -1000.0     -1000.0     -1000.0     -1000.0     -1000.0     -1000.0     -1000.0     -1000.0     -1000.0    
      -1000.0     -1000.0     -1000.0     -1000.0     -1000.0     -1000.0     -1000.0     -1000.0     -1000.0     -1000.0    

 HEAD WILL BE SAVED ON UNIT   51 AT END OF TIME STEP    1, STRESS PERIOD    1
1
  VOLUMETRIC BUDGET FOR ENTIRE MODEL AT END OF TIME STEP    1, STRESS PERIOD   1
  ------------------------------------------------------------------------------

     CUMULATIVE VOLUMES      L**3       RATES FOR THIS TIME STEP      L**3/T
     ------------------                 ------------------------

           IN:                                      IN:
           ---                                      ---
             STORAGE =           0.0000               STORAGE =           0.0000
       CONSTANT HEAD =           0.0000         CONSTANT HEAD =           0.0000
               WELLS =           0.0000                 WELLS =           0.0000
                  ET =           0.0000                    ET =           0.0000
            RECHARGE =       17245.0000              RECHARGE =       17245.0000
      STREAM LEAKAGE =        4259.5000        STREAM LEAKAGE =        4259.5000

            TOTAL IN =       21504.5000              TOTAL IN =       21504.5000

          OUT:                                     OUT:
          ----                                     ----
             STORAGE =           0.0000               STORAGE =           0.0000
       CONSTANT HEAD =        9004.5000         CONSTANT HEAD =        9004.5000
               WELLS =       12500.0000                 WELLS =       12500.0000
                  ET =           0.0000                    ET =           0.0000
            RECHARGE =           0.0000              RECHARGE =           0.0000
      STREAM LEAKAGE =           0.0000        STREAM LEAKAGE =           0.0000

           TOTAL OUT =       21504.5000             TOTAL OUT =       21504.5000

            IN - OUT =           0.0000              IN - OUT =           0.0000

 PERCENT DISCREPANCY =           0.00     PERCENT DISCREPANCY =           0.00






         TIME SUMMARY AT END OF TIME STEP    1 IN STRESS PERIOD    1
                    SECONDS     MINUTES      HOURS       DAYS        YEARS
                    -----------------------------------------------------------
   TIME STEP LENGTH  86400.      1440.0      24.000      1.0000     2.73785E-03
 STRESS PERIOD TIME  86400.      1440.0      24.000      1.0000     2.73785E-03
         TOTAL TIME  86400.      1440.0      24.000      1.0000     2.73785E-03
1

 Run end date and time (yyyy/mm/dd hh:mm:ss): 2022/02/23 11:40:57
 Elapsed run time:  0.117 Seconds

