                                  MODFLOW-2005     
      U.S. GEOLOGICAL SURVEY MODULAR FINITE-DIFFERENCE GROUND-WATER FLOW MODEL
                            VERSION 1.12.00 2/3/2017

 LIST FILE: stream.list
                         UNIT    2

 OPENING stream.dis
 FILE TYPE:DIS   UNIT   11   STATUS:OLD    
 FORMAT:FORMATTED              ACCESS:SEQUENTIAL          

 OPENING stream.bas
 FILE TYPE:BAS6   UNIT   13   STATUS:OLD    
 FORMAT:FORMATTED              ACCESS:SEQUENTIAL          

 OPENING stream.lpf
 FILE TYPE:LPF   UNIT   15   STATUS:OLD    
 FORMAT:FORMATTED              ACCESS:SEQUENTIAL          

 OPENING stream.oc
 FILE TYPE:OC   UNIT   14   STATUS:OLD    
 FORMAT:FORMATTED              ACCESS:SEQUENTIAL          

 OPENING stream.pcg
 FILE TYPE:PCG   UNIT   27   STATUS:OLD    
 FORMAT:FORMATTED              ACCESS:SEQUENTIAL          

 OPENING stream.rch
 FILE TYPE:RCH   UNIT   19   STATUS:OLD    
 FORMAT:FORMATTED              ACCESS:SEQUENTIAL          

 OPENING stream.str
 FILE TYPE:STR   UNIT  118   STATUS:OLD    
 FORMAT:FORMATTED              ACCESS:SEQUENTIAL          

 OPENING stream.cbc
 FILE TYPE:DATA(BINARY)   UNIT   53   STATUS:REPLACE
 FORMAT:BINARY                 ACCESS:SEQUENTIAL          

 OPENING stream.hds
 FILE TYPE:DATA(BINARY)   UNIT   51   STATUS:REPLACE
 FORMAT:BINARY                 ACCESS:SEQUENTIAL          

 BAS -- BASIC PACKAGE, VERSION 7, 5/2/2005 INPUT READ FROM UNIT   13
 
 MODFLOW was compiled using mixed precision
 Precision of REAL variables:           6
 Precision of DOUBLE PRECISION variables:          15

 DISCRETIZATION INPUT DATA READ FROM UNIT   11
 # DIS package for  MODFLOW-2005, generated by Flopy.
    2 LAYERS        50 ROWS        50 COLUMNS
    1 STRESS PERIOD(S) IN SIMULATION
 MODEL TIME UNIT IS DAYS
 MODEL LENGTH UNIT IS METERS
  Confining bed flag for each layer:
   0   0

                     DELR =   1000.00    

                     DELC =   1000.00    



           TOP ELEVATION OF LAYER 1
 READING ON UNIT   11 WITH FORMAT: (50E15.6)           



             MODEL LAYER BOTTOM EL. FOR LAYER   1
 READING ON UNIT   11 WITH FORMAT: (50E15.6)           



             MODEL LAYER BOTTOM EL. FOR LAYER   2
 READING ON UNIT   11 WITH FORMAT: (50E15.6)           


 STRESS PERIOD     LENGTH       TIME STEPS     MULTIPLIER FOR DELT    SS FLAG
 ----------------------------------------------------------------------------
        1         1.000000          1                    1.000         SS

 STEADY-STATE SIMULATION



 
 # BAS6 package for  MODFLOW-2005, generated by Flopy.                           
 THE FREE FORMAT OPTION HAS BEEN SELECTED



                     BOUNDARY ARRAY FOR LAYER   1
 READING ON UNIT   13 WITH FORMAT: (50I10)             



                     BOUNDARY ARRAY FOR LAYER   2
 READING ON UNIT   13 WITH FORMAT: (50I10)             

 AQUIFER HEAD WILL BE SET TO  -999.99     AT ALL NO-FLOW NODES (IBOUND=0).



                       INITIAL HEAD FOR LAYER   1
 READING ON UNIT   13 WITH FORMAT: (50E15.6)           



                       INITIAL HEAD FOR LAYER   2
 READING ON UNIT   13 WITH FORMAT: (50E15.6)           
 # OC package for  MODFLOW-2005, generated by Flopy.

 OUTPUT CONTROL IS SPECIFIED ONLY AT TIME STEPS FOR WHICH OUTPUT IS DESIRED
 COMPACT CELL-BY-CELL BUDGET FILES WILL BE WRITTEN
 AUXILIARY DATA WILL BE SAVED IN CELL-BY-CELL BUDGET FILES
 HEAD PRINT FORMAT CODE IS   0    DRAWDOWN PRINT FORMAT CODE IS   0
 HEADS WILL BE SAVED ON UNIT   51    DRAWDOWNS WILL BE SAVED ON UNIT    0

 LPF -- LAYER-PROPERTY FLOW PACKAGE, VERSION 7, 5/2/2005
         INPUT READ FROM UNIT   15
 # LPF package for  MODFLOW-2005, generated by Flopy.
 CELL-BY-CELL FLOWS WILL BE SAVED ON UNIT   53
 HEAD AT CELLS THAT CONVERT TO DRY= -1.00000E+30
 No named parameters

   LAYER FLAGS:
 LAYER       LAYTYP        LAYAVG         CHANI        LAYVKA        LAYWET
 ---------------------------------------------------------------------------
    1             1             0     0.000E+00             0             0
    2             1             0     0.000E+00             0             0

   INTERPRETATION OF LAYER FLAGS:
                        INTERBLOCK     HORIZONTAL    DATA IN
         LAYER TYPE   TRANSMISSIVITY   ANISOTROPY   ARRAY VKA   WETTABILITY
 LAYER      (LAYTYP)      (LAYAVG)       (CHANI)      (LAYVKA)      (LAYWET)
 ---------------------------------------------------------------------------
    1   CONVERTIBLE      HARMONIC      VARIABLE    VERTICAL K  NON-WETTABLE
    2   CONVERTIBLE      HARMONIC      VARIABLE    VERTICAL K  NON-WETTABLE

 WETTING CAPABILITY IS NOT ACTIVE IN ANY LAYER

    HYD. COND. ALONG ROWS =   10.0000     FOR LAYER   1

   HORIZ. ANI. (COL./ROW) =   1.00000     FOR LAYER   1

      VERTICAL HYD. COND. =   10.0000     FOR LAYER   1

    HYD. COND. ALONG ROWS =   10.0000     FOR LAYER   2

   HORIZ. ANI. (COL./ROW) =   1.00000     FOR LAYER   2

      VERTICAL HYD. COND. =   10.0000     FOR LAYER   2

 RCH -- RECHARGE PACKAGE, VERSION 7, 5/2/2005 INPUT READ FROM UNIT   19
 # RCH package for  MODFLOW-2005, generated by Flopy.
 No named parameters
 OPTION 3 -- RECHARGE TO HIGHEST ACTIVE NODE IN EACH VERTICAL COLUMN


     0 Recharge parameters

 STR -- STREAM PACKAGE, VERSION 7, 5/2/2005 INPUT READ FROM UNIT  118
 # STR package for  MODFLOW-2005, generated by Flopy.
 No named parameters
 MAXIMUM OF     44 ACTIVE STREAM NODES AT ONE TIME
 NUMBER OF STREAM SEGMENTS IS      1
 NUMBER OF STREAM TRIBUTARIES IS      0
 CELL BUDGETS WILL BE SAVED ON UNITS   53 AND   53


     0 Stream parameters

 PCG -- CONJUGATE-GRADIENT SOLUTION PACKAGE, VERSION 7, 5/2/2005
 # PCG package for  MODFLOW-2005, generated by Flopy.
 MAXIMUM OF     50 CALLS OF SOLUTION ROUTINE
 MAXIMUM OF     30 INTERNAL ITERATIONS PER CALL TO SOLUTION ROUTINE
 MATRIX PRECONDITIONING TYPE :    1



                                    SOLUTION BY THE CONJUGATE-GRADIENT METHOD
                                   -------------------------------------------
                    MAXIMUM NUMBER OF CALLS TO PCG ROUTINE =       50
                        MAXIMUM ITERATIONS PER CALL TO PCG =       30
                               MATRIX PRECONDITIONING TYPE =        1
        RELAXATION FACTOR (ONLY USED WITH PRECOND. TYPE 1) =    0.10000E+01
 PARAMETER OF POLYNOMIAL PRECOND. = 2 (2) OR IS CALCULATED :        0
                         HEAD CHANGE CRITERION FOR CLOSURE =    0.10000E-04
                     RESIDUAL CHANGE CRITERION FOR CLOSURE =    0.10000E-04
            PCG HEAD AND RESIDUAL CHANGE PRINTOUT INTERVAL =      999
     PRINTING FROM SOLVER IS LIMITED(1) OR SUPPRESSED (>1) =        3
                            STEADY-STATE DAMPING PARAMETER =    0.10000E+01
                               TRANSIENT DAMPING PARAMETER =    0.10000E+01
1
                            STRESS PERIOD NO.    1, LENGTH =   1.000000    
                            -----------------------------------------------

                              NUMBER OF TIME STEPS =     1

                               MULTIPLIER FOR DELT =     1.000

                            INITIAL TIME STEP SIZE =   1.000000    



                           RECHARGE
 READING ON UNIT   19 WITH FORMAT: (50E15.6)           

     44 STREAM REACHES
 
 SOLVING FOR HEAD 

 OUTPUT CONTROL FOR STRESS PERIOD    1   TIME STEP    1
    PRINT HEAD FOR ALL LAYERS
    PRINT BUDGET
    SAVE HEAD FOR ALL LAYERS
    SAVE BUDGET
 UBDSV2 SAVING "   CONSTANT HEAD" ON UNIT  53 AT TIME STEP  1, STRESS PERIOD   1
 UBDSV1 SAVING "FLOW RIGHT FACE " ON UNIT  53 AT TIME STEP  1, STRESS PERIOD   1
 UBDSV1 SAVING "FLOW FRONT FACE " ON UNIT  53 AT TIME STEP  1, STRESS PERIOD   1
 UBDSV1 SAVING "FLOW LOWER FACE " ON UNIT  53 AT TIME STEP  1, STRESS PERIOD   1
 UBDSV4 SAVING "  STREAM LEAKAGE" ON UNIT  53 AT TIME STEP  1, STRESS PERIOD   1
 UBDSV4 SAVING "STREAM FLOW OUT " ON UNIT  53 AT TIME STEP  1, STRESS PERIOD   1
1
              HEAD IN LAYER   1 AT END OF TIME STEP   1 IN STRESS PERIOD    1
  ---------------------------------------------------------------------------

            1           2           3           4           5           6           7           8           9          10
           11          12          13          14          15          16          17          18          19          20
           21          22          23          24          25          26          27          28          29          30
           31          32          33          34          35          36          37          38          39          40
           41          42          43          44          45          46          47          48          49          50
 ........................................................................................................................
   1  -1000.0     -1000.0     -1000.0     -1000.0     -1000.0     -1000.0     -1000.0     -1000.0     -1000.0     -1000.0    
      -1000.0     -1000.0     -1000.0     -1000.0     -1000.0     -1000.0     -1000.0     -1000.0     -1000.0     -1000.0    
      -1000.0     -1000.0     -1000.0     -1000.0     -1000.0     -1000.0     -1000.0     -1000.0     -1000.0     -1000.0    
      -1000.0     -1000.0     -1000.0     -1000.0     -1000.0     -1000.0     -1000.0     -1000.0     -1000.0     -1000.0    
      -1000.0     -1000.0     -1000.0     -1000.0     -1000.0     -1000.0     -1000.0     -1000.0     -1000.0     -1000.0    
   2  -1000.0     -1000.0     -1000.0     -1000.0     -1000.0     -1000.0     -1000.0     -1000.0     -1000.0     -1000.0    
      -1000.0     -1000.0     -1000.0     -1000.0     -1000.0     -1000.0     -1000.0     -1000.0     -1000.0     -1000.0    
      -1000.0     -1000.0     -1000.0       79.50       79.40       79.25       79.07       78.87       78.67       78.46    
        78.26       78.08       77.93       77.83     -1000.0     -1000.0     -1000.0     -1000.0     -1000.0     -1000.0    
      -1000.0     -1000.0     -1000.0     -1000.0     -1000.0     -1000.0     -1000.0     -1000.0     -1000.0     -1000.0    
   3  -1000.0     -1000.0     -1000.0     -1000.0     -1000.0     -1000.0     -1000.0     -1000.0     -1000.0     -1000.0    
      -1000.0     -1000.0     -1000.0     -1000.0     -1000.0     -1000.0     -1000.0     -1000.0     -1000.0     -1000.0    
      -1000.0     -1000.0       79.73       79.60       79.45       79.28       79.08       78.88       78.67       78.45    
        78.25       78.05       77.88       77.73       77.59     -1000.0     -1000.0     -1000.0     -1000.0     -1000.0    
      -1000.0     -1000.0     -1000.0     -1000.0     -1000.0     -1000.0     -1000.0     -1000.0     -1000.0     -1000.0    
   4  -1000.0     -1000.0     -1000.0     -1000.0     -1000.0     -1000.0     -1000.0     -1000.0     -1000.0     -1000.0    
      -1000.0     -1000.0     -1000.0     -1000.0     -1000.0     -1000.0     -1000.0     -1000.0     -1000.0     -1000.0    
      -1000.0     -1000.0       79.86       79.71       79.53       79.32       79.11       78.89       78.67       78.44    
        78.22       78.00       77.80       77.61       77.46     -1000.0     -1000.0     -1000.0     -1000.0     -1000.0    
      -1000.0     -1000.0     -1000.0     -1000.0     -1000.0     -1000.0     -1000.0     -1000.0     -1000.0     -1000.0    
   5  -1000.0     -1000.0     -1000.0     -1000.0     -1000.0     -1000.0     -1000.0     -1000.0     -1000.0     -1000.0    
      -1000.0     -1000.0     -1000.0     -1000.0     -1000.0     -1000.0     -1000.0       81.52       81.39       81.17    
        80.89       80.55       80.14       79.86       79.62       79.38       79.15       78.91       78.67       78.42    
        78.18       77.95       77.70       77.45       77.17       76.73       76.35       76.00       75.68       75.38    
        75.11       74.87       74.68       74.55     -1000.0     -1000.0     -1000.0     -1000.0     -1000.0     -1000.0    
   6  -1000.0     -1000.0     -1000.0     -1000.0     -1000.0     -1000.0     -1000.0     -1000.0     -1000.0     -1000.0    
      -1000.0     -1000.0     -1000.0     -1000.0     -1000.0     -1000.0     -1000.0       81.66       81.48       81.24    
        80.95       80.62       80.28       79.98       79.71       79.44       79.18       78.92       78.66       78.41    
        78.15       77.89       77.62       77.34       77.03       76.67       76.31       75.97       75.65       75.35    
        75.08       74.82       74.61       74.43       74.27     -1000.0     -1000.0     -1000.0     -1000.0     -1000.0    
   7  -1000.0     -1000.0     -1000.0     -1000.0     -1000.0     -1000.0     -1000.0     -1000.0     -1000.0     -1000.0    
      -1000.0     -1000.0     -1000.0       83.23       83.06       82.77       82.41       81.96       81.64       81.34    
        81.03       80.71       80.38       80.07       79.78       79.49       79.21       78.94       78.66       78.39    
        78.11       77.83       77.55       77.25       76.93       76.60       76.26       75.93       75.61       75.30    
        75.01       74.74       74.50       74.28       74.11     -1000.0     -1000.0     -1000.0     -1000.0     -1000.0    
   8  -1000.0     -1000.0     -1000.0     -1000.0     -1000.0     -1000.0     -1000.0     -1000.0     -1000.0     -1000.0    
      -1000.0     -1000.0       83.50       83.35       83.14       82.84       82.50       82.13       81.78       81.45    
        81.13       80.80       80.47       80.15       79.84       79.54       79.24       78.95       78.66       78.37    
        78.08       77.78       77.48       77.18       76.86       76.53       76.20       75.87       75.55       75.23    
        74.93       74.64       74.36       74.08       73.78       73.36       73.07       72.91     -1000.0     -1000.0    
   9  -1000.0     -1000.0     -1000.0     -1000.0     -1000.0     -1000.0     -1000.0     -1000.0     -1000.0     -1000.0    
      -1000.0     -1000.0       83.60       83.48       83.26       82.95       82.62       82.26       81.91       81.56    
        81.22       80.88       80.55       80.22       79.89       79.58       79.27       78.96       78.65       78.35    
        78.05       77.74       77.43       77.11       76.79       76.46       76.13       75.80       75.48       75.15    
        74.84       74.53       74.22       73.90       73.58       73.23       72.94       72.75     -1000.0     -1000.0    
  10  -1000.0     -1000.0     -1000.0     -1000.0     -1000.0     -1000.0     -1000.0     -1000.0     -1000.0     -1000.0    
      -1000.0     -1000.0       83.78       83.65       83.41       83.09       82.75       82.39       82.03       81.67    
        81.31       80.96       80.62       80.28       79.94       79.61       79.29       78.97       78.65       78.33    
        78.02       77.70       77.38       77.06       76.73       76.40       76.06       75.73       75.40       75.07    
        74.74       74.41       74.07       73.74       73.39       73.04       72.70       72.39       72.06     -1000.0    
  11  -1000.0     -1000.0     -1000.0     -1000.0     -1000.0     -1000.0     -1000.0     -1000.0     -1000.0     -1000.0    
      -1000.0     -1000.0       84.04       83.88       83.61       83.26       82.89       82.52       82.14       81.77    
        81.40       81.04       80.68       80.33       79.98       79.64       79.30       78.97       78.64       78.31    
        77.99       77.66       77.33       77.00       76.67       76.33       76.00       75.66       75.32       74.98    
        74.63       74.29       73.94       73.58       73.21       72.83       72.44       72.06       71.73     -1000.0    
  12  -1000.0     -1000.0     -1000.0     -1000.0     -1000.0     -1000.0     -1000.0     -1000.0     -1000.0     -1000.0    
      -1000.0     -1000.0       84.40       84.17       83.83       83.44       83.04       82.65       82.25       81.87    
        81.48       81.10       80.73       80.37       80.01       79.66       79.31       78.96       78.63       78.29    
        77.95       77.62       77.28       76.95       76.61       76.27       75.93       75.58       75.24       74.89    
        74.53       74.17       73.80       73.43       73.03       72.62       72.18       71.68       71.05       70.00    
  13  -1000.0     -1000.0     -1000.0     -1000.0     -1000.0       87.64       87.51       87.29       87.00       86.64    
        86.20       85.66       84.96       84.50       84.07       83.62       83.19       82.77       82.36       81.95    
        81.55       81.16       80.78       80.40       80.03       79.67       79.31       78.96       78.61       78.26    
        77.92       77.58       77.24       76.89       76.55       76.21       75.86       75.51       75.16       74.80    
        74.43       74.06       73.68       73.29       72.87       72.43       71.96       71.42       70.79       70.00    
  14  -1000.0     -1000.0     -1000.0       88.00       87.90       87.73       87.55       87.32       87.03       86.67    
        86.26       85.77       85.23       84.74       84.27       83.79       83.33       82.88       82.45       82.03    
        81.62       81.21       80.82       80.43       80.05       79.67       79.31       78.94       78.59       78.23    
        77.88       77.53       77.19       76.84       76.49       76.14       75.79       75.44       75.08       74.71    
        74.34       73.96       73.57       73.16       72.74       72.28       71.80       71.26       70.66       70.00    
  15  -1000.0     -1000.0       88.11       88.04       87.94       87.78       87.59       87.35       87.07       86.72    
        86.33       85.88       85.40       84.92       84.43       83.93       83.45       82.98       82.53       82.10    
        81.67       81.25       80.84       80.45       80.05       79.67       79.29       78.92       78.56       78.20    
        77.84       77.49       77.14       76.79       76.43       76.08       75.73       75.37       75.00       74.64    
        74.26       73.87       73.47       73.06       72.63       72.17       71.68       71.16       70.59       70.00    
  16  -1000.0     -1000.0       88.14       88.08       87.98       87.83       87.63       87.40       87.11       86.78    
        86.40       85.98       85.52       85.05       84.55       84.04       83.54       83.07       82.60       82.15    
        81.71       81.28       80.86       80.45       80.05       79.66       79.27       78.90       78.52       78.16    
        77.80       77.44       77.08       76.73       76.37       76.02       75.66       75.30       74.93       74.56    
        74.18       73.79       73.39       72.97       72.53       72.08       71.59       71.09       70.55       70.00    
  17  -1000.0     -1000.0       88.17       88.12       88.01       87.87       87.67       87.44       87.16       86.83    
        86.46       86.06       85.62       85.15       84.65       84.13       83.62       83.13       82.66       82.19    
        81.74       81.30       80.87       80.45       80.04       79.64       79.24       78.86       78.48       78.11    
        77.75       77.39       77.03       76.67       76.32       75.96       75.60       75.24       74.87       74.49    
        74.11       73.72       73.32       72.90       72.46       72.01       71.53       71.04       70.53       70.00    
  18  -1000.0     -1000.0       88.22       88.16       88.05       87.90       87.71       87.48       87.20       86.88    
        86.52       86.12       85.69       85.22       84.73       84.20       83.68       83.18       82.69       82.22    
        81.76       81.30       80.86       80.43       80.01       79.60       79.20       78.81       78.43       78.06    
        77.69       77.33       76.97       76.61       76.25       75.90       75.54       75.18       74.81       74.43    
        74.05       73.66       73.26       72.84       72.40       71.95       71.49       71.00       70.51       70.00    
  19  -1000.0       88.34       88.28       88.20       88.09       87.94       87.74       87.51       87.24       86.92    
        86.57       86.18       85.75       85.28       84.78       84.25       83.73       83.22       82.72       82.23    
        81.76       81.29       80.84       80.40       79.97       79.56       79.15       78.76       78.38       78.00    
        77.63       77.27       76.91       76.55       76.19       75.84       75.48       75.12       74.75       74.38    
        74.00       73.61       73.21       72.79       72.36       71.92       71.46       70.98       70.50       70.00    
  20  -1000.0       88.36       88.31       88.23       88.12       87.97       87.77       87.54       87.27       86.96    
        86.61       86.22       85.79       85.32       84.82       84.28       83.75       83.23       82.73       82.23    
        81.74       81.27       80.81       80.36       79.92       79.50       79.09       78.69       78.31       77.93    
        77.56       77.20       76.84       76.48       76.13       75.78       75.42       75.06       74.70       74.33    
        73.95       73.57       73.17       72.76       72.33       71.89       71.44       70.97       70.49       70.00    
  21  -1000.0       88.37       88.33       88.25       88.14       87.99       87.80       87.57       87.30       86.99    
        86.64       86.25       85.82       85.35       84.85       84.30       83.77       83.24       82.72       82.21    
        81.71       81.23       80.76       80.30       79.86       79.43       79.01       78.61       78.23       77.85    
        77.48       77.12       76.77       76.42       76.07       75.72       75.37       75.01       74.65       74.29    
        73.92       73.53       73.14       72.73       72.31       71.88       71.43       70.96       70.48       70.00    
  22  -1000.0       88.38       88.35       88.27       88.15       88.00       87.81       87.58       87.31       87.00    
        86.66       86.27       85.84       85.37       84.86       84.31       83.77       83.23       82.70       82.18    
        81.67       81.17       80.69       80.22       79.77       79.34       78.92       78.52       78.13       77.76    
        77.40       77.04       76.69       76.34       76.00       75.66       75.31       74.96       74.61       74.25    
        73.89       73.51       73.12       72.72       72.31       71.88       71.43       70.96       70.49       70.00    
  23  -1000.0       88.39       88.35       88.27       88.16       88.01       87.82       87.59       87.32       87.02    
        86.67       86.28       85.85       85.38       84.87       84.31       83.76       83.21       82.67       82.14    
        81.61       81.10       80.60       80.13       79.67       79.23       78.81       78.41       78.03       77.66    
        77.30       76.95       76.61       76.27       75.93       75.59       75.26       74.92       74.57       74.22    
        73.86       73.50       73.12       72.72       72.32       71.89       71.44       70.98       70.50       70.00    
  24  -1000.0       88.39       88.35       88.27       88.16       88.01       87.82       87.59       87.33       87.02    
        86.68       86.29       85.86       85.39       84.87       84.30       83.74       83.18       82.63       82.08    
        81.54       81.01       80.50       80.01       79.53       79.09       78.67       78.28       77.90       77.54    
        77.19       76.85       76.52       76.19       75.86       75.53       75.20       74.87       74.54       74.20    
        73.85       73.49       73.12       72.74       72.34       71.92       71.47       71.01       70.51       70.00    
  25  -1000.0       88.38       88.34       88.26       88.15       88.00       87.81       87.59       87.32       87.02    
        86.68       86.29       85.86       85.38       84.86       84.29       83.72       83.15       82.57       82.01    
        81.45       80.90       80.37       79.85       79.37       78.93       78.52       78.13       77.77       77.41    
        77.08       76.75       76.42       76.10       75.79       75.47       75.15       74.83       74.51       74.18    
        73.84       73.50       73.14       72.77       72.38       71.97       71.53       71.05       70.55       70.00    
  26  -1000.0       88.37       88.31       88.24       88.13       87.98       87.80       87.58       87.31       87.01    
        86.67       86.28       85.85       85.38       84.85       84.27       83.70       83.11       82.51       81.92    
        81.34       80.76       80.20       79.67       79.16       78.73       78.33       77.96       77.61       77.27    
        76.95       76.63       76.32       76.01       75.71       75.41       75.10       74.80       74.49       74.17    
        73.85       73.51       73.17       72.81       72.44       72.04       71.61       71.14       70.61       70.00    
  27  -1000.0     -1000.0       88.26       88.21       88.10       87.96       87.78       87.56       87.30       87.00    
        86.66       86.27       85.84       85.37       84.85       84.28       83.71       83.14       82.56       82.00    
        81.44       80.89       80.36       79.85       79.37       78.92       78.51       78.13       77.77       77.42    
        77.08       76.75       76.43       76.11       75.79       75.48       75.16       74.84       74.52       74.19    
        73.85       73.50       73.14       72.77       72.38       71.97       71.53       71.05       70.54       70.00    
  28  -1000.0     -1000.0       88.22       88.17       88.07       87.93       87.75       87.53       87.28       86.98    
        86.64       86.26       85.83       85.36       84.85       84.28       83.72       83.16       82.61       82.06    
        81.52       80.99       80.48       79.99       79.52       79.08       78.67       78.28       77.91       77.55    
        77.20       76.86       76.53       76.20       75.88       75.55       75.22       74.89       74.55       74.21    
        73.86       73.50       73.12       72.74       72.33       71.91       71.47       71.00       70.51       70.00    
  29  -1000.0     -1000.0       88.19       88.14       88.04       87.89       87.71       87.50       87.25       86.95    
        86.62       86.24       85.82       85.35       84.84       84.28       83.73       83.18       82.64       82.10    
        81.58       81.07       80.58       80.10       79.65       79.21       78.80       78.41       78.03       77.67    
        77.31       76.97       76.63       76.29       75.96       75.62       75.28       74.94       74.59       74.24    
        73.87       73.50       73.12       72.72       72.31       71.88       71.43       70.97       70.49       70.00    
  30  -1000.0     -1000.0       88.17       88.11       88.00       87.84       87.66       87.46       87.21       86.92    
        86.59       86.22       85.80       85.33       84.82       84.27       83.73       83.19       82.66       82.14    
        81.63       81.13       80.66       80.19       79.75       79.32       78.91       78.52       78.14       77.77    
        77.42       77.07       76.72       76.38       76.04       75.69       75.35       75.00       74.64       74.27    
        73.90       73.52       73.12       72.71       72.29       71.86       71.41       70.95       70.48       70.00    
  31  -1000.0     -1000.0       88.15       88.09       87.97       87.77       87.60       87.40       87.17       86.89    
        86.56       86.19       85.77       85.31       84.80       84.25       83.71       83.18       82.66       82.15    
        81.66       81.18       80.71       80.26       79.83       79.41       79.00       78.61       78.24       77.87    
        77.51       77.16       76.81       76.46       76.12       75.77       75.41       75.06       74.69       74.32    
        73.93       73.54       73.13       72.72       72.29       71.85       71.40       70.94       70.47       70.00    
  32  -1000.0     -1000.0     -1000.0     -1000.0     -1000.0       87.62       87.51       87.35       87.13       86.86    
        86.54       86.16       85.74       85.28       84.77       84.22       83.69       83.16       82.65       82.15    
        81.67       81.20       80.75       80.31       79.89       79.48       79.08       78.69       78.32       77.95    
        77.60       77.24       76.89       76.54       76.19       75.84       75.49       75.12       74.75       74.37    
        73.98       73.57       73.16       72.73       72.29       71.85       71.40       70.94       70.47       70.00    
  33  -1000.0     -1000.0     -1000.0     -1000.0     -1000.0       87.52       87.44       87.29       87.09       86.83    
        86.51       86.14       85.71       85.24       84.73       84.18       83.64       83.13       82.62       82.14    
        81.67       81.21       80.77       80.35       79.93       79.53       79.14       78.76       78.39       78.03    
        77.67       77.32       76.97       76.62       76.27       75.92       75.56       75.20       74.82       74.43    
        74.03       73.61       73.19       72.75       72.31       71.85       71.40       70.93       70.47       70.00    
  34  -1000.0     -1000.0     -1000.0     -1000.0     -1000.0       87.46       87.39       87.26       87.06       86.81    
        86.49       86.11       85.68       85.20       84.67       84.12       83.58       83.07       82.58       82.10    
        81.65       81.20       80.78       80.36       79.96       79.57       79.19       78.82       78.45       78.10    
        77.75       77.40       77.05       76.70       76.36       76.00       75.64       75.28       74.90       74.50    
        74.09       73.67       73.23       72.78       72.32       71.86       71.40       70.93       70.47       70.00    
  35  -1000.0     -1000.0     -1000.0     -1000.0     -1000.0       87.42       87.36       87.23       87.05       86.80    
        86.48       86.10       85.65       85.14       84.60       84.03       83.50       82.99       82.51       82.05    
        81.61       81.18       80.77       80.37       79.98       79.60       79.23       78.86       78.51       78.16    
        77.81       77.47       77.13       76.78       76.44       76.09       75.73       75.37       74.99       74.59    
        74.17       73.73       73.27       72.81       72.34       71.87       71.40       70.93       70.46       70.00    
  36  -1000.0     -1000.0     -1000.0     -1000.0     -1000.0       87.40       87.34       87.23       87.05       86.81    
        86.49       86.10       85.62       85.08       84.50       83.91       83.37       82.88       82.41       81.97    
        81.55       81.14       80.74       80.36       79.98       79.61       79.26       78.90       78.56       78.21    
        77.88       77.54       77.20       76.87       76.53       76.18       75.83       75.47       75.09       74.69    
        74.26       73.80       73.33       72.84       72.36       71.87       71.39       70.92       70.46       70.00    
  37  -1000.0     -1000.0     -1000.0     -1000.0     -1000.0       87.39       87.34       87.23       87.07       86.85    
        86.54       86.14       85.60       85.00       84.35       83.74       83.21       82.73       82.29       81.88    
        81.48       81.09       80.71       80.34       79.98       79.62       79.28       78.93       78.60       78.27    
        77.93       77.61       77.28       76.95       76.62       76.28       75.94       75.59       75.22       74.82    
        74.38       73.89       73.38       72.88       72.37       71.86       71.37       70.90       70.44       70.00    
  38  -1000.0     -1000.0     -1000.0     -1000.0     -1000.0       87.39       87.34       87.25       87.11       86.92    
        86.64       86.25       85.61       84.93       84.11       83.48       82.99       82.55       82.15       81.76    
        81.39       81.02       80.66       80.31       79.96       79.62       79.29       78.96       78.63       78.31    
        77.99       77.67       77.35       77.03       76.71       76.39       76.06       75.72       75.37       74.99    
        74.54       73.99       73.44       72.90       72.37       71.84       71.32       70.86       70.42       70.00    
  39  -1000.0     -1000.0     -1000.0     -1000.0     -1000.0     -1000.0       87.33       87.27       87.17       87.02    
        86.81       86.55     -1000.0     -1000.0       83.63       83.09       82.69       82.33       81.98       81.64    
        81.29       80.95       80.60       80.27       79.94       79.61       79.29       78.98       78.67       78.36    
        78.05       77.74       77.42       77.11       76.80       76.49       76.18       75.87       75.56       75.21    
        74.79       74.09       73.49       72.92       72.37       71.81       71.22       70.78       70.38       70.00    
  40  -1000.0     -1000.0     -1000.0     -1000.0     -1000.0     -1000.0       87.33       87.29       87.22       87.12    
        86.99     -1000.0     -1000.0     -1000.0     -1000.0       82.56       82.36       82.10       81.81       81.51    
        81.19       80.87       80.54       80.22       79.91       79.60       79.29       78.99       78.70       78.40    
        78.10       77.80       77.49       77.19       76.89       76.59       76.31       76.03       75.76       75.52    
        75.32     -1000.0     -1000.0     -1000.0     -1000.0     -1000.0       70.95       70.68       70.30       70.00    
  41  -1000.0     -1000.0     -1000.0     -1000.0     -1000.0     -1000.0     -1000.0       87.30       87.26       87.21    
      -1000.0     -1000.0     -1000.0     -1000.0     -1000.0       82.22       82.10       81.90       81.66       81.38    
        81.09       80.79       80.48       80.17       79.87       79.57       79.29       79.00       78.72       78.44    
        78.16       77.86       77.56       77.27       76.97       76.69       76.42       76.17       75.95       75.76    
        75.65     -1000.0     -1000.0     -1000.0     -1000.0     -1000.0     -1000.0     -1000.0       70.15       70.00    
  42  -1000.0     -1000.0     -1000.0     -1000.0     -1000.0     -1000.0     -1000.0     -1000.0     -1000.0     -1000.0    
      -1000.0     -1000.0     -1000.0     -1000.0     -1000.0       82.00       81.90       81.74       81.53       81.28    
        81.01       80.71       80.41       80.11       79.82       79.54       79.28       79.01       78.75       78.49    
        78.22       77.93       77.63       77.33       77.04       76.77       76.51       76.29       76.09       75.95    
        75.86     -1000.0     -1000.0     -1000.0     -1000.0     -1000.0     -1000.0     -1000.0     -1000.0     -1000.0    
  43  -1000.0     -1000.0     -1000.0     -1000.0     -1000.0     -1000.0     -1000.0     -1000.0     -1000.0     -1000.0    
      -1000.0     -1000.0     -1000.0     -1000.0     -1000.0       81.89       81.77       81.63       81.44       81.21    
        80.94       80.65       80.33       80.04       79.77       79.50       79.26       79.02       78.78       78.55    
        78.30       78.02       77.70       77.39       77.10       76.82       76.58       76.37       76.19       76.06    
        75.99     -1000.0     -1000.0     -1000.0     -1000.0     -1000.0     -1000.0     -1000.0     -1000.0     -1000.0    
  44  -1000.0     -1000.0     -1000.0     -1000.0     -1000.0     -1000.0     -1000.0     -1000.0     -1000.0     -1000.0    
      -1000.0     -1000.0     -1000.0     -1000.0     -1000.0     -1000.0       81.67       81.56       81.39       81.17    
        80.90       80.59       80.23       79.96       79.69       79.45       79.23       79.02       78.81       78.61    
        78.40       78.15       77.76       77.42       77.13       76.85       76.61       76.41       76.24       76.12    
        76.06     -1000.0     -1000.0     -1000.0     -1000.0     -1000.0     -1000.0     -1000.0     -1000.0     -1000.0    
  45  -1000.0     -1000.0     -1000.0     -1000.0     -1000.0     -1000.0     -1000.0     -1000.0     -1000.0     -1000.0    
      -1000.0     -1000.0     -1000.0     -1000.0     -1000.0     -1000.0     -1000.0     -1000.0     -1000.0     -1000.0    
      -1000.0     -1000.0       80.05       79.87       79.59       79.37       79.19       79.01       78.85       78.68    
        78.53       78.42     -1000.0     -1000.0     -1000.0     -1000.0     -1000.0     -1000.0     -1000.0     -1000.0    
      -1000.0     -1000.0     -1000.0     -1000.0     -1000.0     -1000.0     -1000.0     -1000.0     -1000.0     -1000.0    
  46  -1000.0     -1000.0     -1000.0     -1000.0     -1000.0     -1000.0     -1000.0     -1000.0     -1000.0     -1000.0    
      -1000.0     -1000.0     -1000.0     -1000.0     -1000.0     -1000.0     -1000.0     -1000.0     -1000.0     -1000.0    
      -1000.0     -1000.0     -1000.0     -1000.0       79.43       79.27       79.13       79.00       78.87       78.75    
        78.64       78.57     -1000.0     -1000.0     -1000.0     -1000.0     -1000.0     -1000.0     -1000.0     -1000.0    
      -1000.0     -1000.0     -1000.0     -1000.0     -1000.0     -1000.0     -1000.0     -1000.0     -1000.0     -1000.0    
  47  -1000.0     -1000.0     -1000.0     -1000.0     -1000.0     -1000.0     -1000.0     -1000.0     -1000.0     -1000.0    
      -1000.0     -1000.0     -1000.0     -1000.0     -1000.0     -1000.0     -1000.0     -1000.0     -1000.0     -1000.0    
      -1000.0     -1000.0     -1000.0     -1000.0     -1000.0       79.13       79.07       78.98       78.89       78.80    
        78.71       78.64     -1000.0     -1000.0     -1000.0     -1000.0     -1000.0     -1000.0     -1000.0     -1000.0    
      -1000.0     -1000.0     -1000.0     -1000.0     -1000.0     -1000.0     -1000.0     -1000.0     -1000.0     -1000.0    
  48  -1000.0     -1000.0     -1000.0     -1000.0     -1000.0     -1000.0     -1000.0     -1000.0     -1000.0     -1000.0    
      -1000.0     -1000.0     -1000.0     -1000.0     -1000.0     -1000.0     -1000.0     -1000.0     -1000.0     -1000.0    
      -1000.0     -1000.0     -1000.0     -1000.0     -1000.0       79.07       79.03       78.97       78.90       78.84    
        78.77     -1000.0     -1000.0     -1000.0     -1000.0     -1000.0     -1000.0     -1000.0     -1000.0     -1000.0    
      -1000.0     -1000.0     -1000.0     -1000.0     -1000.0     -1000.0     -1000.0     -1000.0     -1000.0     -1000.0    
  49  -1000.0     -1000.0     -1000.0     -1000.0     -1000.0     -1000.0     -1000.0     -1000.0     -1000.0     -1000.0    
      -1000.0     -1000.0     -1000.0     -1000.0     -1000.0     -1000.0     -1000.0     -1000.0     -1000.0     -1000.0    
      -1000.0     -1000.0     -1000.0     -1000.0     -1000.0       79.04       79.01       78.96       78.91       78.88    
      -1000.0     -1000.0     -1000.0     -1000.0     -1000.0     -1000.0     -1000.0     -1000.0     -1000.0     -1000.0    
      -1000.0     -1000.0     -1000.0     -1000.0     -1000.0     -1000.0     -1000.0     -1000.0     -1000.0     -1000.0    
  50  -1000.0     -1000.0     -1000.0     -1000.0     -1000.0     -1000.0     -1000.0     -1000.0     -1000.0     -1000.0    
      -1000.0     -1000.0     -1000.0     -1000.0     -1000.0     -1000.0     -1000.0     -1000.0     -1000.0     -1000.0    
      -1000.0     -1000.0     -1000.0     -1000.0     -1000.0     -1000.0     -1000.0     -1000.0     -1000.0     -1000.0    
      -1000.0     -1000.0     -1000.0     -1000.0     -1000.0     -1000.0     -1000.0     -1000.0     -1000.0     -1000.0    
      -1000.0     -1000.0     -1000.0     -1000.0     -1000.0     -1000.0     -1000.0     -1000.0     -1000.0     -1000.0    
1
              HEAD IN LAYER   2 AT END OF TIME STEP   1 IN STRESS PERIOD    1
  ---------------------------------------------------------------------------

            1           2           3           4           5           6           7           8           9          10
           11          12          13          14          15          16          17          18          19          20
           21          22          23          24          25          26          27          28          29          30
           31          32          33          34          35          36          37          38          39          40
           41          42          43          44          45          46          47          48          49          50
 ........................................................................................................................
   1  -1000.0     -1000.0     -1000.0     -1000.0     -1000.0     -1000.0     -1000.0     -1000.0     -1000.0     -1000.0    
      -1000.0     -1000.0     -1000.0     -1000.0     -1000.0     -1000.0     -1000.0     -1000.0     -1000.0     -1000.0    
      -1000.0     -1000.0     -1000.0     -1000.0     -1000.0     -1000.0     -1000.0     -1000.0     -1000.0     -1000.0    
      -1000.0     -1000.0     -1000.0     -1000.0     -1000.0     -1000.0     -1000.0     -1000.0     -1000.0     -1000.0    
      -1000.0     -1000.0     -1000.0     -1000.0     -1000.0     -1000.0     -1000.0     -1000.0     -1000.0     -1000.0    
   2  -1000.0     -1000.0     -1000.0     -1000.0     -1000.0     -1000.0     -1000.0     -1000.0     -1000.0     -1000.0    
      -1000.0     -1000.0     -1000.0     -1000.0     -1000.0     -1000.0     -1000.0     -1000.0     -1000.0     -1000.0    
      -1000.0     -1000.0     -1000.0       79.50       79.40       79.25       79.07       78.87       78.67       78.46    
        78.26       78.08       77.93       77.83     -1000.0     -1000.0     -1000.0     -1000.0     -1000.0     -1000.0    
      -1000.0     -1000.0     -1000.0     -1000.0     -1000.0     -1000.0     -1000.0     -1000.0     -1000.0     -1000.0    
   3  -1000.0     -1000.0     -1000.0     -1000.0     -1000.0     -1000.0     -1000.0     -1000.0     -1000.0     -1000.0    
      -1000.0     -1000.0     -1000.0     -1000.0     -1000.0     -1000.0     -1000.0     -1000.0     -1000.0     -1000.0    
      -1000.0     -1000.0       79.73       79.60       79.45       79.28       79.08       78.88       78.67       78.45    
        78.25       78.05       77.88       77.73       77.59     -1000.0     -1000.0     -1000.0     -1000.0     -1000.0    
      -1000.0     -1000.0     -1000.0     -1000.0     -1000.0     -1000.0     -1000.0     -1000.0     -1000.0     -1000.0    
   4  -1000.0     -1000.0     -1000.0     -1000.0     -1000.0     -1000.0     -1000.0     -1000.0     -1000.0     -1000.0    
      -1000.0     -1000.0     -1000.0     -1000.0     -1000.0     -1000.0     -1000.0     -1000.0     -1000.0     -1000.0    
      -1000.0     -1000.0       79.86       79.71       79.53       79.32       79.11       78.89       78.67       78.44    
        78.22       78.00       77.80       77.61       77.46     -1000.0     -1000.0     -1000.0     -1000.0     -1000.0    
      -1000.0     -1000.0     -1000.0     -1000.0     -1000.0     -1000.0     -1000.0     -1000.0     -1000.0     -1000.0    
   5  -1000.0     -1000.0     -1000.0     -1000.0     -1000.0     -1000.0     -1000.0     -1000.0     -1000.0     -1000.0    
      -1000.0     -1000.0     -1000.0     -1000.0     -1000.0     -1000.0     -1000.0       81.52       81.39       81.17    
        80.89       80.55       80.14       79.86       79.62       79.38       79.15       78.91       78.67       78.42    
        78.18       77.95       77.70       77.45       77.17       76.73       76.35       76.00       75.68       75.38    
        75.11       74.87       74.68       74.55     -1000.0     -1000.0     -1000.0     -1000.0     -1000.0     -1000.0    
   6  -1000.0     -1000.0     -1000.0     -1000.0     -1000.0     -1000.0     -1000.0     -1000.0     -1000.0     -1000.0    
      -1000.0     -1000.0     -1000.0     -1000.0     -1000.0     -1000.0     -1000.0       81.66       81.48       81.24    
        80.95       80.62       80.28       79.98       79.71       79.44       79.18       78.92       78.66       78.41    
        78.15       77.89       77.62       77.34       77.03       76.67       76.31       75.97       75.65       75.35    
        75.08       74.82       74.61       74.43       74.27     -1000.0     -1000.0     -1000.0     -1000.0     -1000.0    
   7  -1000.0     -1000.0     -1000.0     -1000.0     -1000.0     -1000.0     -1000.0     -1000.0     -1000.0     -1000.0    
      -1000.0     -1000.0     -1000.0       83.23       83.06       82.77       82.41       81.96       81.64       81.34    
        81.03       80.71       80.38       80.07       79.78       79.49       79.21       78.94       78.66       78.39    
        78.11       77.83       77.55       77.25       76.93       76.60       76.26       75.93       75.61       75.30    
        75.01       74.74       74.50       74.28       74.11     -1000.0     -1000.0     -1000.0     -1000.0     -1000.0    
   8  -1000.0     -1000.0     -1000.0     -1000.0     -1000.0     -1000.0     -1000.0     -1000.0     -1000.0     -1000.0    
      -1000.0     -1000.0       83.50       83.35       83.14       82.84       82.50       82.13       81.78       81.45    
        81.13       80.80       80.47       80.15       79.84       79.54       79.24       78.95       78.66       78.37    
        78.08       77.78       77.48       77.18       76.86       76.53       76.20       75.87       75.55       75.23    
        74.93       74.64       74.36       74.08       73.78       73.36       73.07       72.91     -1000.0     -1000.0    
   9  -1000.0     -1000.0     -1000.0     -1000.0     -1000.0     -1000.0     -1000.0     -1000.0     -1000.0     -1000.0    
      -1000.0     -1000.0       83.60       83.48       83.26       82.95       82.62       82.26       81.91       81.56    
        81.22       80.88       80.55       80.22       79.89       79.58       79.27       78.96       78.65       78.35    
        78.05       77.74       77.43       77.11       76.79       76.46       76.13       75.80       75.48       75.15    
        74.84       74.53       74.22       73.90       73.58       73.23       72.94       72.75     -1000.0     -1000.0    
  10  -1000.0     -1000.0     -1000.0     -1000.0     -1000.0     -1000.0     -1000.0     -1000.0     -1000.0     -1000.0    
      -1000.0     -1000.0       83.78       83.65       83.41       83.09       82.75       82.39       82.03       81.67    
        81.31       80.96       80.62       80.28       79.94       79.61       79.29       78.97       78.65       78.33    
        78.02       77.70       77.38       77.06       76.73       76.40       76.06       75.73       75.40       75.07    
        74.74       74.41       74.07       73.74       73.39       73.04       72.70       72.39       72.06     -1000.0    
  11  -1000.0     -1000.0     -1000.0     -1000.0     -1000.0     -1000.0     -1000.0     -1000.0     -1000.0     -1000.0    
      -1000.0     -1000.0       84.04       83.88       83.61       83.26       82.89       82.52       82.14       81.77    
        81.40       81.04       80.68       80.33       79.98       79.64       79.30       78.97       78.64       78.31    
        77.99       77.66       77.33       77.00       76.67       76.33       76.00       75.66       75.32       74.98    
        74.63       74.29       73.94       73.58       73.21       72.83       72.44       72.06       71.73     -1000.0    
  12  -1000.0     -1000.0     -1000.0     -1000.0     -1000.0     -1000.0     -1000.0     -1000.0     -1000.0     -1000.0    
      -1000.0     -1000.0       84.40       84.16       83.83       83.44       83.04       82.65       82.25       81.87    
        81.48       81.10       80.73       80.37       80.01       79.66       79.31       78.96       78.63       78.29    
        77.95       77.62       77.28       76.95       76.61       76.27       75.93       75.58       75.24       74.89    
        74.53       74.17       73.80       73.43       73.03       72.62       72.18       71.68       71.05       70.00    
  13  -1000.0     -1000.0     -1000.0     -1000.0     -1000.0       87.64       87.51       87.29       87.00       86.64    
        86.20       85.66       84.96       84.50       84.07       83.62       83.19       82.77       82.36       81.95    
        81.55       81.16       80.78       80.40       80.03       79.67       79.31       78.96       78.61       78.26    
        77.92       77.58       77.24       76.89       76.55       76.21       75.86       75.51       75.16       74.80    
        74.43       74.06       73.68       73.29       72.87       72.43       71.96       71.42       70.79       70.00    
  14  -1000.0     -1000.0     -1000.0       88.00       87.90       87.73       87.55       87.32       87.03       86.67    
        86.26       85.77       85.23       84.74       84.27       83.79       83.33       82.88       82.45       82.03    
        81.62       81.21       80.82       80.43       80.05       79.67       79.31       78.94       78.59       78.23    
        77.88       77.53       77.19       76.84       76.49       76.14       75.79       75.44       75.08       74.71    
        74.34       73.96       73.57       73.16       72.74       72.28       71.80       71.26       70.66       70.00    
  15  -1000.0     -1000.0       88.11       88.04       87.94       87.78       87.59       87.35       87.07       86.72    
        86.33       85.88       85.40       84.92       84.43       83.93       83.45       82.98       82.53       82.10    
        81.67       81.25       80.84       80.45       80.05       79.67       79.29       78.92       78.56       78.20    
        77.84       77.49       77.14       76.79       76.43       76.08       75.73       75.37       75.00       74.64    
        74.26       73.87       73.47       73.06       72.63       72.17       71.68       71.16       70.59       70.00    
  16  -1000.0     -1000.0       88.14       88.08       87.98       87.83       87.63       87.40       87.11       86.78    
        86.40       85.98       85.52       85.05       84.55       84.04       83.54       83.07       82.60       82.15    
        81.71       81.28       80.86       80.45       80.05       79.66       79.27       78.90       78.52       78.16    
        77.80       77.44       77.08       76.73       76.37       76.02       75.66       75.30       74.93       74.56    
        74.18       73.79       73.39       72.97       72.53       72.08       71.59       71.09       70.55       70.00    
  17  -1000.0     -1000.0       88.17       88.12       88.01       87.87       87.67       87.44       87.16       86.83    
        86.46       86.06       85.62       85.15       84.65       84.13       83.62       83.13       82.66       82.19    
        81.74       81.30       80.87       80.45       80.04       79.64       79.24       78.86       78.48       78.11    
        77.75       77.39       77.03       76.67       76.32       75.96       75.60       75.24       74.87       74.49    
        74.11       73.72       73.32       72.90       72.46       72.01       71.53       71.04       70.53       70.00    
  18  -1000.0     -1000.0       88.22       88.16       88.05       87.90       87.71       87.48       87.20       86.88    
        86.52       86.12       85.69       85.22       84.73       84.20       83.68       83.18       82.69       82.22    
        81.76       81.30       80.86       80.43       80.01       79.60       79.20       78.81       78.43       78.06    
        77.69       77.33       76.97       76.61       76.25       75.90       75.54       75.18       74.81       74.43    
        74.05       73.66       73.26       72.84       72.40       71.95       71.49       71.00       70.51       70.00    
  19  -1000.0       88.34       88.28       88.20       88.09       87.94       87.74       87.51       87.24       86.92    
        86.57       86.18       85.75       85.28       84.78       84.25       83.73       83.22       82.72       82.23    
        81.76       81.29       80.84       80.40       79.97       79.56       79.15       78.76       78.38       78.00    
        77.63       77.27       76.91       76.55       76.19       75.84       75.48       75.12       74.75       74.38    
        74.00       73.61       73.21       72.79       72.36       71.92       71.46       70.98       70.50       70.00    
  20  -1000.0       88.36       88.31       88.23       88.12       87.97       87.77       87.54       87.27       86.96    
        86.61       86.22       85.79       85.32       84.82       84.28       83.75       83.23       82.73       82.23    
        81.74       81.27       80.81       80.36       79.92       79.50       79.09       78.69       78.31       77.93    
        77.56       77.20       76.84       76.48       76.13       75.78       75.42       75.06       74.70       74.33    
        73.95       73.57       73.17       72.76       72.33       71.89       71.44       70.97       70.49       70.00    
  21  -1000.0       88.37       88.33       88.25       88.14       87.99       87.80       87.57       87.30       86.99    
        86.64       86.25       85.82       85.35       84.85       84.30       83.77       83.24       82.72       82.21    
        81.71       81.23       80.76       80.30       79.86       79.43       79.01       78.61       78.23       77.85    
        77.48       77.12       76.77       76.42       76.07       75.72       75.37       75.01       74.65       74.29    
        73.92       73.53       73.14       72.73       72.31       71.88       71.43       70.96       70.48       70.00    
  22  -1000.0       88.38       88.35       88.27       88.15       88.00       87.81       87.58       87.31       87.00    
        86.66       86.27       85.84       85.37       84.86       84.31       83.77       83.23       82.70       82.18    
        81.67       81.17       80.69       80.22       79.77       79.34       78.92       78.52       78.13       77.76    
        77.40       77.04       76.69       76.34       76.00       75.66       75.31       74.96       74.61       74.25    
        73.89       73.51       73.12       72.72       72.31       71.88       71.43       70.96       70.49       70.00    
  23  -1000.0       88.39       88.35       88.27       88.16       88.01       87.82       87.59       87.32       87.02    
        86.67       86.28       85.85       85.38       84.87       84.31       83.76       83.21       82.67       82.14    
        81.61       81.10       80.60       80.13       79.67       79.23       78.81       78.41       78.03       77.66    
        77.30       76.95       76.61       76.27       75.93       75.59       75.26       74.92       74.57       74.22    
        73.86       73.50       73.12       72.72       72.32       71.89       71.44       70.98       70.50       70.00    
  24  -1000.0       88.39       88.35       88.27       88.16       88.01       87.82       87.59       87.33       87.02    
        86.68       86.29       85.86       85.39       84.87       84.30       83.74       83.18       82.63       82.08    
        81.54       81.01       80.50       80.01       79.53       79.09       78.67       78.28       77.90       77.54    
        77.19       76.85       76.52       76.19       75.86       75.53       75.20       74.87       74.54       74.20    
        73.85       73.49       73.12       72.74       72.34       71.92       71.47       71.01       70.51       70.00    
  25  -1000.0       88.38       88.34       88.26       88.15       88.00       87.81       87.59       87.32       87.02    
        86.68       86.29       85.86       85.38       84.86       84.29       83.72       83.15       82.57       82.01    
        81.45       80.90       80.37       79.85       79.37       78.93       78.52       78.13       77.77       77.41    
        77.08       76.75       76.42       76.10       75.79       75.47       75.15       74.83       74.51       74.18    
        73.84       73.50       73.14       72.77       72.38       71.97       71.53       71.05       70.55       70.00    
  26  -1000.0       88.37       88.31       88.24       88.13       87.98       87.80       87.58       87.31       87.01    
        86.67       86.28       85.85       85.38       84.85       84.27       83.70       83.11       82.51       81.92    
        81.34       80.76       80.20       79.67       79.16       78.73       78.33       77.96       77.61       77.27    
        76.95       76.63       76.32       76.01       75.71       75.41       75.10       74.80       74.49       74.17    
        73.85       73.51       73.17       72.81       72.44       72.04       71.61       71.14       70.61       70.00    
  27  -1000.0     -1000.0       88.26       88.21       88.10       87.96       87.78       87.56       87.30       87.00    
        86.66       86.27       85.84       85.37       84.85       84.28       83.71       83.14       82.56       82.00    
        81.44       80.89       80.36       79.85       79.37       78.92       78.51       78.13       77.77       77.42    
        77.08       76.75       76.43       76.11       75.79       75.48       75.16       74.84       74.52       74.19    
        73.85       73.50       73.14       72.77       72.38       71.97       71.53       71.05       70.54       70.00    
  28  -1000.0     -1000.0       88.22       88.17       88.07       87.93       87.75       87.53       87.28       86.98    
        86.64       86.26       85.83       85.36       84.85       84.28       83.72       83.16       82.61       82.06    
        81.52       80.99       80.48       79.99       79.52       79.08       78.67       78.28       77.91       77.55    
        77.20       76.86       76.53       76.20       75.88       75.55       75.22       74.89       74.55       74.21    
        73.86       73.50       73.12       72.74       72.33       71.91       71.47       71.00       70.51       70.00    
  29  -1000.0     -1000.0       88.19       88.14       88.04       87.89       87.71       87.50       87.25       86.95    
        86.62       86.24       85.82       85.35       84.84       84.28       83.73       83.18       82.64       82.10    
        81.58       81.07       80.58       80.10       79.65       79.21       78.80       78.41       78.03       77.67    
        77.31       76.97       76.63       76.29       75.96       75.62       75.28       74.94       74.59       74.24    
        73.87       73.50       73.12       72.72       72.31       71.88       71.43       70.97       70.49       70.00    
  30  -1000.0     -1000.0       88.17       88.11       88.00       87.84       87.66       87.46       87.21       86.92    
        86.59       86.22       85.80       85.33       84.82       84.27       83.73       83.19       82.66       82.14    
        81.63       81.13       80.66       80.19       79.75       79.32       78.91       78.52       78.14       77.77    
        77.42       77.07       76.72       76.38       76.04       75.69       75.35       75.00       74.64       74.27    
        73.90       73.52       73.12       72.71       72.29       71.86       71.41       70.95       70.48       70.00    
  31  -1000.0     -1000.0       88.15       88.09       87.97       87.77       87.60       87.40       87.17       86.89    
        86.56       86.19       85.77       85.31       84.80       84.25       83.71       83.18       82.66       82.15    
        81.66       81.18       80.71       80.26       79.83       79.41       79.00       78.61       78.24       77.87    
        77.51       77.16       76.81       76.46       76.12       75.77       75.41       75.06       74.69       74.32    
        73.93       73.54       73.13       72.72       72.29       71.85       71.40       70.94       70.47       70.00    
  32  -1000.0     -1000.0     -1000.0     -1000.0     -1000.0       87.62       87.51       87.35       87.13       86.86    
        86.54       86.16       85.74       85.28       84.77       84.22       83.69       83.16       82.65       82.15    
        81.67       81.20       80.75       80.31       79.89       79.48       79.08       78.69       78.32       77.95    
        77.60       77.24       76.89       76.54       76.19       75.84       75.49       75.12       74.75       74.37    
        73.98       73.57       73.16       72.73       72.29       71.85       71.40       70.94       70.47       70.00    
  33  -1000.0     -1000.0     -1000.0     -1000.0     -1000.0       87.52       87.44       87.29       87.09       86.83    
        86.51       86.14       85.71       85.24       84.73       84.18       83.64       83.13       82.62       82.14    
        81.67       81.21       80.77       80.35       79.93       79.53       79.14       78.76       78.39       78.03    
        77.67       77.32       76.97       76.62       76.27       75.92       75.56       75.20       74.82       74.43    
        74.03       73.61       73.19       72.75       72.31       71.85       71.40       70.93       70.47       70.00    
  34  -1000.0     -1000.0     -1000.0     -1000.0     -1000.0       87.46       87.39       87.26       87.06       86.81    
        86.49       86.11       85.68       85.20       84.67       84.12       83.58       83.07       82.58       82.10    
        81.65       81.20       80.78       80.36       79.96       79.57       79.19       78.82       78.45       78.10    
        77.75       77.40       77.05       76.70       76.36       76.00       75.64       75.28       74.90       74.50    
        74.09       73.67       73.23       72.78       72.32       71.86       71.40       70.93       70.47       70.00    
  35  -1000.0     -1000.0     -1000.0     -1000.0     -1000.0       87.42       87.36       87.23       87.05       86.80    
        86.48       86.10       85.65       85.14       84.60       84.03       83.50       82.99       82.51       82.05    
        81.61       81.18       80.77       80.37       79.98       79.60       79.23       78.86       78.51       78.16    
        77.81       77.47       77.13       76.78       76.44       76.09       75.73       75.37       74.99       74.59    
        74.17       73.73       73.27       72.81       72.34       71.87       71.40       70.93       70.46       70.00    
  36  -1000.0     -1000.0     -1000.0     -1000.0     -1000.0       87.40       87.34       87.23       87.05       86.81    
        86.49       86.10       85.62       85.08       84.50       83.91       83.37       82.88       82.41       81.97    
        81.55       81.14       80.74       80.36       79.98       79.61       79.26       78.90       78.56       78.21    
        77.88       77.54       77.20       76.87       76.53       76.18       75.83       75.47       75.09       74.69    
        74.26       73.80       73.33       72.84       72.36       71.87       71.39       70.92       70.46       70.00    
  37  -1000.0     -1000.0     -1000.0     -1000.0     -1000.0       87.39       87.34       87.23       87.07       86.85    
        86.54       86.14       85.60       85.00       84.35       83.74       83.21       82.73       82.29       81.88    
        81.48       81.09       80.71       80.34       79.98       79.62       79.28       78.93       78.60       78.27    
        77.93       77.61       77.28       76.95       76.62       76.28       75.94       75.59       75.22       74.82    
        74.38       73.89       73.38       72.88       72.37       71.86       71.37       70.90       70.44       70.00    
  38  -1000.0     -1000.0     -1000.0     -1000.0     -1000.0       87.39       87.34       87.25       87.11       86.92    
        86.64       86.25       85.61       84.93       84.11       83.48       82.99       82.55       82.15       81.76    
        81.39       81.02       80.66       80.31       79.96       79.62       79.29       78.96       78.63       78.31    
        77.99       77.67       77.35       77.03       76.71       76.39       76.06       75.72       75.37       74.99    
        74.54       73.99       73.44       72.90       72.37       71.84       71.32       70.86       70.42       70.00    
  39  -1000.0     -1000.0     -1000.0     -1000.0     -1000.0     -1000.0       87.33       87.27       87.17       87.02    
        86.81       86.55     -1000.0     -1000.0       83.63       83.09       82.69       82.33       81.98       81.64    
        81.29       80.95       80.60       80.27       79.94       79.61       79.29       78.98       78.67       78.36    
        78.05       77.74       77.42       77.11       76.80       76.49       76.18       75.87       75.56       75.21    
        74.79       74.09       73.49       72.92       72.37       71.81       71.22       70.78       70.38       70.00    
  40  -1000.0     -1000.0     -1000.0     -1000.0     -1000.0     -1000.0       87.33       87.29       87.22       87.12    
        86.99     -1000.0     -1000.0     -1000.0     -1000.0       82.56       82.36       82.10       81.81       81.51    
        81.19       80.87       80.54       80.22       79.91       79.60       79.29       78.99       78.70       78.40    
        78.10       77.80       77.49       77.19       76.89       76.59       76.31       76.03       75.76       75.52    
        75.32     -1000.0     -1000.0     -1000.0     -1000.0     -1000.0       70.95       70.68       70.30       70.00    
  41  -1000.0     -1000.0     -1000.0     -1000.0     -1000.0     -1000.0     -1000.0       87.30       87.26       87.21    
      -1000.0     -1000.0     -1000.0     -1000.0     -1000.0       82.22       82.10       81.90       81.66       81.38    
        81.09       80.79       80.48       80.17       79.87       79.57       79.29       79.00       78.72       78.44    
        78.16       77.86       77.56       77.27       76.97       76.69       76.42       76.17       75.95       75.76    
        75.65     -1000.0     -1000.0     -1000.0     -1000.0     -1000.0     -1000.0     -1000.0       70.15       70.00    
  42  -1000.0     -1000.0     -1000.0     -1000.0     -1000.0     -1000.0     -1000.0     -1000.0     -1000.0     -1000.0    
      -1000.0     -1000.0     -1000.0     -1000.0     -1000.0       82.00       81.90       81.74       81.53       81.28    
        81.01       80.71       80.41       80.11       79.82       79.54       79.28       79.01       78.75       78.49    
        78.22       77.93       77.63       77.33       77.04       76.77       76.51       76.29       76.09       75.95    
        75.86     -1000.0     -1000.0     -1000.0     -1000.0     -1000.0     -1000.0     -1000.0     -1000.0     -1000.0    
  43  -1000.0     -1000.0     -1000.0     -1000.0     -1000.0     -1000.0     -1000.0     -1000.0     -1000.0     -1000.0    
      -1000.0     -1000.0     -1000.0     -1000.0     -1000.0       81.89       81.77       81.63       81.44       81.21    
        80.94       80.65       80.33       80.04       79.77       79.50       79.26       79.02       78.78       78.55    
        78.30       78.02       77.70       77.39       77.10       76.82       76.58       76.37       76.19       76.06    
        75.99     -1000.0     -1000.0     -1000.0     -1000.0     -1000.0     -1000.0     -1000.0     -1000.0     -1000.0    
  44  -1000.0     -1000.0     -1000.0     -1000.0     -1000.0     -1000.0     -1000.0     -1000.0     -1000.0     -1000.0    
      -1000.0     -1000.0     -1000.0     -1000.0     -1000.0     -1000.0       81.67       81.56       81.39       81.17    
        80.90       80.59       80.23       79.96       79.69       79.45       79.23       79.02       78.81       78.61    
        78.40       78.15       77.76       77.42       77.13       76.85       76.61       76.41       76.24       76.12    
        76.06     -1000.0     -1000.0     -1000.0     -1000.0     -1000.0     -1000.0     -1000.0     -1000.0     -1000.0    
  45  -1000.0     -1000.0     -1000.0     -1000.0     -1000.0     -1000.0     -1000.0     -1000.0     -1000.0     -1000.0    
      -1000.0     -1000.0     -1000.0     -1000.0     -1000.0     -1000.0     -1000.0     -1000.0     -1000.0     -1000.0    
      -1000.0     -1000.0       80.05       79.87       79.59       79.37       79.19       79.01       78.85       78.68    
        78.53       78.42     -1000.0     -1000.0     -1000.0     -1000.0     -1000.0     -1000.0     -1000.0     -1000.0    
      -1000.0     -1000.0     -1000.0     -1000.0     -1000.0     -1000.0     -1000.0     -1000.0     -1000.0     -1000.0    
  46  -1000.0     -1000.0     -1000.0     -1000.0     -1000.0     -1000.0     -1000.0     -1000.0     -1000.0     -1000.0    
      -1000.0     -1000.0     -1000.0     -1000.0     -1000.0     -1000.0     -1000.0     -1000.0     -1000.0     -1000.0    
      -1000.0     -1000.0     -1000.0     -1000.0       79.43       79.27       79.13       79.00       78.87       78.75    
        78.64       78.57     -1000.0     -1000.0     -1000.0     -1000.0     -1000.0     -1000.0     -1000.0     -1000.0    
      -1000.0     -1000.0     -1000.0     -1000.0     -1000.0     -1000.0     -1000.0     -1000.0     -1000.0     -1000.0    
  47  -1000.0     -1000.0     -1000.0     -1000.0     -1000.0     -1000.0     -1000.0     -1000.0     -1000.0     -1000.0    
      -1000.0     -1000.0     -1000.0     -1000.0     -1000.0     -1000.0     -1000.0     -1000.0     -1000.0     -1000.0    
      -1000.0     -1000.0     -1000.0     -1000.0     -1000.0       79.13       79.07       78.98       78.89       78.80    
        78.71       78.64     -1000.0     -1000.0     -1000.0     -1000.0     -1000.0     -1000.0     -1000.0     -1000.0    
      -1000.0     -1000.0     -1000.0     -1000.0     -1000.0     -1000.0     -1000.0     -1000.0     -1000.0     -1000.0    
  48  -1000.0     -1000.0     -1000.0     -1000.0     -1000.0     -1000.0     -1000.0     -1000.0     -1000.0     -1000.0    
      -1000.0     -1000.0     -1000.0     -1000.0     -1000.0     -1000.0     -1000.0     -1000.0     -1000.0     -1000.0    
      -1000.0     -1000.0     -1000.0     -1000.0     -1000.0       79.07       79.03       78.97       78.90       78.84    
        78.77     -1000.0     -1000.0     -1000.0     -1000.0     -1000.0     -1000.0     -1000.0     -1000.0     -1000.0    
      -1000.0     -1000.0     -1000.0     -1000.0     -1000.0     -1000.0     -1000.0     -1000.0     -1000.0     -1000.0    
  49  -1000.0     -1000.0     -1000.0     -1000.0     -1000.0     -1000.0     -1000.0     -1000.0     -1000.0     -1000.0    
      -1000.0     -1000.0     -1000.0     -1000.0     -1000.0     -1000.0     -1000.0     -1000.0     -1000.0     -1000.0    
      -1000.0     -1000.0     -1000.0     -1000.0     -1000.0       79.04       79.01       78.96       78.91       78.88    
      -1000.0     -1000.0     -1000.0     -1000.0     -1000.0     -1000.0     -1000.0     -1000.0     -1000.0     -1000.0    
      -1000.0     -1000.0     -1000.0     -1000.0     -1000.0     -1000.0     -1000.0     -1000.0     -1000.0     -1000.0    
  50  -1000.0     -1000.0     -1000.0     -1000.0     -1000.0     -1000.0     -1000.0     -1000.0     -1000.0     -1000.0    
      -1000.0     -1000.0     -1000.0     -1000.0     -1000.0     -1000.0     -1000.0     -1000.0     -1000.0     -1000.0    
      -1000.0     -1000.0     -1000.0     -1000.0     -1000.0     -1000.0     -1000.0     -1000.0     -1000.0     -1000.0    
      -1000.0     -1000.0     -1000.0     -1000.0     -1000.0     -1000.0     -1000.0     -1000.0     -1000.0     -1000.0    
      -1000.0     -1000.0     -1000.0     -1000.0     -1000.0     -1000.0     -1000.0     -1000.0     -1000.0     -1000.0    

 HEAD WILL BE SAVED ON UNIT   51 AT END OF TIME STEP    1, STRESS PERIOD    1
1
  VOLUMETRIC BUDGET FOR ENTIRE MODEL AT END OF TIME STEP    1, STRESS PERIOD   1
  ------------------------------------------------------------------------------

     CUMULATIVE VOLUMES      L**3       RATES FOR THIS TIME STEP      L**3/T
     ------------------                 ------------------------

           IN:                                      IN:
           ---                                      ---
             STORAGE =           0.0000               STORAGE =           0.0000
       CONSTANT HEAD =           0.0000         CONSTANT HEAD =           0.0000
            RECHARGE =       14120.0000              RECHARGE =       14120.0000
      STREAM LEAKAGE =         856.7764        STREAM LEAKAGE =         856.7764

            TOTAL IN =       14976.7764              TOTAL IN =       14976.7764

          OUT:                                     OUT:
          ----                                     ----
             STORAGE =           0.0000               STORAGE =           0.0000
       CONSTANT HEAD =       10764.0869         CONSTANT HEAD =       10764.0869
            RECHARGE =           0.0000              RECHARGE =           0.0000
      STREAM LEAKAGE =        4212.6899        STREAM LEAKAGE =        4212.6899

           TOTAL OUT =       14976.7773             TOTAL OUT =       14976.7773

            IN - OUT =      -9.7656E-04              IN - OUT =      -9.7656E-04

 PERCENT DISCREPANCY =          -0.00     PERCENT DISCREPANCY =          -0.00






         TIME SUMMARY AT END OF TIME STEP    1 IN STRESS PERIOD    1
                    SECONDS     MINUTES      HOURS       DAYS        YEARS
                    -----------------------------------------------------------
   TIME STEP LENGTH  86400.      1440.0      24.000      1.0000     2.73785E-03
 STRESS PERIOD TIME  86400.      1440.0      24.000      1.0000     2.73785E-03
         TOTAL TIME  86400.      1440.0      24.000      1.0000     2.73785E-03
1

 Run end date and time (yyyy/mm/dd hh:mm:ss): 2021/12/01 16:11:42
 Elapsed run time:  0.062 Seconds

