                                  MODFLOW-2005     
      U.S. GEOLOGICAL SURVEY MODULAR FINITE-DIFFERENCE GROUND-WATER FLOW MODEL
                            VERSION 1.12.00 2/3/2017

 LIST FILE: base.list
                         UNIT    2

 OPENING base.dis
 FILE TYPE:DIS   UNIT   11   STATUS:OLD    
 FORMAT:FORMATTED              ACCESS:SEQUENTIAL          

 OPENING base.bas
 FILE TYPE:BAS6   UNIT   13   STATUS:OLD    
 FORMAT:FORMATTED              ACCESS:SEQUENTIAL          

 OPENING base.lpf
 FILE TYPE:LPF   UNIT   15   STATUS:OLD    
 FORMAT:FORMATTED              ACCESS:SEQUENTIAL          

 OPENING base.oc
 FILE TYPE:OC   UNIT   14   STATUS:OLD    
 FORMAT:FORMATTED              ACCESS:SEQUENTIAL          

 OPENING base.pcg
 FILE TYPE:PCG   UNIT   27   STATUS:OLD    
 FORMAT:FORMATTED              ACCESS:SEQUENTIAL          

 OPENING base.rch
 FILE TYPE:RCH   UNIT   19   STATUS:OLD    
 FORMAT:FORMATTED              ACCESS:SEQUENTIAL          

 OPENING base.cbc
 FILE TYPE:DATA(BINARY)   UNIT   53   STATUS:REPLACE
 FORMAT:BINARY                 ACCESS:SEQUENTIAL          

 OPENING base.hds
 FILE TYPE:DATA(BINARY)   UNIT   51   STATUS:REPLACE
 FORMAT:BINARY                 ACCESS:SEQUENTIAL          

 BAS -- BASIC PACKAGE, VERSION 7, 5/2/2005 INPUT READ FROM UNIT   13
 
 MODFLOW was compiled using mixed precision
 Precision of REAL variables:           6
 Precision of DOUBLE PRECISION variables:          15

 DISCRETIZATION INPUT DATA READ FROM UNIT   11
 # DIS package for  MODFLOW-2005, generated by Flopy.
    2 LAYERS        50 ROWS        50 COLUMNS
    1 STRESS PERIOD(S) IN SIMULATION
 MODEL TIME UNIT IS DAYS
 MODEL LENGTH UNIT IS METERS
  Confining bed flag for each layer:
   0   0

                     DELR =   1000.00    

                     DELC =   1000.00    



           TOP ELEVATION OF LAYER 1
 READING ON UNIT   11 WITH FORMAT: (50E15.6)           



             MODEL LAYER BOTTOM EL. FOR LAYER   1
 READING ON UNIT   11 WITH FORMAT: (50E15.6)           



             MODEL LAYER BOTTOM EL. FOR LAYER   2
 READING ON UNIT   11 WITH FORMAT: (50E15.6)           


 STRESS PERIOD     LENGTH       TIME STEPS     MULTIPLIER FOR DELT    SS FLAG
 ----------------------------------------------------------------------------
        1         1.000000          1                    1.000         SS

 STEADY-STATE SIMULATION



 
 # BAS6 package for  MODFLOW-2005, generated by Flopy.                           
 THE FREE FORMAT OPTION HAS BEEN SELECTED



                     BOUNDARY ARRAY FOR LAYER   1
 READING ON UNIT   13 WITH FORMAT: (50I10)             



                     BOUNDARY ARRAY FOR LAYER   2
 READING ON UNIT   13 WITH FORMAT: (50I10)             

 AQUIFER HEAD WILL BE SET TO  -999.99     AT ALL NO-FLOW NODES (IBOUND=0).



                       INITIAL HEAD FOR LAYER   1
 READING ON UNIT   13 WITH FORMAT: (50E15.6)           



                       INITIAL HEAD FOR LAYER   2
 READING ON UNIT   13 WITH FORMAT: (50E15.6)           
 # OC package for  MODFLOW-2005, generated by Flopy.

 OUTPUT CONTROL IS SPECIFIED ONLY AT TIME STEPS FOR WHICH OUTPUT IS DESIRED
 COMPACT CELL-BY-CELL BUDGET FILES WILL BE WRITTEN
 AUXILIARY DATA WILL BE SAVED IN CELL-BY-CELL BUDGET FILES
 HEAD PRINT FORMAT CODE IS   0    DRAWDOWN PRINT FORMAT CODE IS   0
 HEADS WILL BE SAVED ON UNIT   51    DRAWDOWNS WILL BE SAVED ON UNIT    0

 LPF -- LAYER-PROPERTY FLOW PACKAGE, VERSION 7, 5/2/2005
         INPUT READ FROM UNIT   15
 # LPF package for  MODFLOW-2005, generated by Flopy.
 CELL-BY-CELL FLOWS WILL BE SAVED ON UNIT   53
 HEAD AT CELLS THAT CONVERT TO DRY= -1.00000E+30
 No named parameters

   LAYER FLAGS:
 LAYER       LAYTYP        LAYAVG         CHANI        LAYVKA        LAYWET
 ---------------------------------------------------------------------------
    1             1             0     0.000E+00             0             0
    2             1             0     0.000E+00             0             0

   INTERPRETATION OF LAYER FLAGS:
                        INTERBLOCK     HORIZONTAL    DATA IN
         LAYER TYPE   TRANSMISSIVITY   ANISOTROPY   ARRAY VKA   WETTABILITY
 LAYER      (LAYTYP)      (LAYAVG)       (CHANI)      (LAYVKA)      (LAYWET)
 ---------------------------------------------------------------------------
    1   CONVERTIBLE      HARMONIC      VARIABLE    VERTICAL K  NON-WETTABLE
    2   CONVERTIBLE      HARMONIC      VARIABLE    VERTICAL K  NON-WETTABLE

 WETTING CAPABILITY IS NOT ACTIVE IN ANY LAYER

    HYD. COND. ALONG ROWS =   29.3000     FOR LAYER   1

   HORIZ. ANI. (COL./ROW) =   1.00000     FOR LAYER   1

      VERTICAL HYD. COND. =   10.0000     FOR LAYER   1

    HYD. COND. ALONG ROWS =   29.3000     FOR LAYER   2

   HORIZ. ANI. (COL./ROW) =   1.00000     FOR LAYER   2

      VERTICAL HYD. COND. =   10.0000     FOR LAYER   2

 RCH -- RECHARGE PACKAGE, VERSION 7, 5/2/2005 INPUT READ FROM UNIT   19
 # RCH package for  MODFLOW-2005, generated by Flopy.
 No named parameters
 OPTION 3 -- RECHARGE TO HIGHEST ACTIVE NODE IN EACH VERTICAL COLUMN


     0 Recharge parameters

 PCG -- CONJUGATE-GRADIENT SOLUTION PACKAGE, VERSION 7, 5/2/2005
 # PCG package for  MODFLOW-2005, generated by Flopy.
 MAXIMUM OF     50 CALLS OF SOLUTION ROUTINE
 MAXIMUM OF     30 INTERNAL ITERATIONS PER CALL TO SOLUTION ROUTINE
 MATRIX PRECONDITIONING TYPE :    1



                                    SOLUTION BY THE CONJUGATE-GRADIENT METHOD
                                   -------------------------------------------
                    MAXIMUM NUMBER OF CALLS TO PCG ROUTINE =       50
                        MAXIMUM ITERATIONS PER CALL TO PCG =       30
                               MATRIX PRECONDITIONING TYPE =        1
        RELAXATION FACTOR (ONLY USED WITH PRECOND. TYPE 1) =    0.10000E+01
 PARAMETER OF POLYNOMIAL PRECOND. = 2 (2) OR IS CALCULATED :        0
                         HEAD CHANGE CRITERION FOR CLOSURE =    0.10000E-04
                     RESIDUAL CHANGE CRITERION FOR CLOSURE =    0.10000E-04
            PCG HEAD AND RESIDUAL CHANGE PRINTOUT INTERVAL =      999
     PRINTING FROM SOLVER IS LIMITED(1) OR SUPPRESSED (>1) =        3
                            STEADY-STATE DAMPING PARAMETER =    0.10000E+01
                               TRANSIENT DAMPING PARAMETER =    0.10000E+01
1
                            STRESS PERIOD NO.    1, LENGTH =   1.000000    
                            -----------------------------------------------

                              NUMBER OF TIME STEPS =     1

                               MULTIPLIER FOR DELT =     1.000

                            INITIAL TIME STEP SIZE =   1.000000    



                           RECHARGE
 READING ON UNIT   19 WITH FORMAT: (50E15.6)           
 
 SOLVING FOR HEAD 

 OUTPUT CONTROL FOR STRESS PERIOD    1   TIME STEP    1
    PRINT HEAD FOR ALL LAYERS
    PRINT BUDGET
    SAVE HEAD FOR ALL LAYERS
    SAVE BUDGET
 UBDSV2 SAVING "   CONSTANT HEAD" ON UNIT  53 AT TIME STEP  1, STRESS PERIOD   1
 UBDSV1 SAVING "FLOW RIGHT FACE " ON UNIT  53 AT TIME STEP  1, STRESS PERIOD   1
 UBDSV1 SAVING "FLOW FRONT FACE " ON UNIT  53 AT TIME STEP  1, STRESS PERIOD   1
 UBDSV1 SAVING "FLOW LOWER FACE " ON UNIT  53 AT TIME STEP  1, STRESS PERIOD   1
1
              HEAD IN LAYER   1 AT END OF TIME STEP   1 IN STRESS PERIOD    1
  ---------------------------------------------------------------------------

            1           2           3           4           5           6           7           8           9          10
           11          12          13          14          15          16          17          18          19          20
           21          22          23          24          25          26          27          28          29          30
           31          32          33          34          35          36          37          38          39          40
           41          42          43          44          45          46          47          48          49          50
 ........................................................................................................................
   1  -1000.0     -1000.0     -1000.0     -1000.0     -1000.0     -1000.0     -1000.0     -1000.0     -1000.0     -1000.0    
      -1000.0     -1000.0     -1000.0     -1000.0     -1000.0     -1000.0     -1000.0     -1000.0     -1000.0     -1000.0    
      -1000.0     -1000.0     -1000.0     -1000.0     -1000.0     -1000.0     -1000.0     -1000.0     -1000.0     -1000.0    
      -1000.0     -1000.0     -1000.0     -1000.0     -1000.0     -1000.0     -1000.0     -1000.0     -1000.0     -1000.0    
      -1000.0     -1000.0     -1000.0     -1000.0     -1000.0     -1000.0     -1000.0     -1000.0     -1000.0     -1000.0    
   2  -1000.0     -1000.0     -1000.0     -1000.0     -1000.0     -1000.0     -1000.0     -1000.0     -1000.0     -1000.0    
      -1000.0     -1000.0     -1000.0     -1000.0     -1000.0     -1000.0     -1000.0     -1000.0     -1000.0     -1000.0    
      -1000.0     -1000.0     -1000.0       74.32       74.28       74.22       74.14       74.05       73.97       73.88    
        73.79       73.71       73.64       73.60     -1000.0     -1000.0     -1000.0     -1000.0     -1000.0     -1000.0    
      -1000.0     -1000.0     -1000.0     -1000.0     -1000.0     -1000.0     -1000.0     -1000.0     -1000.0     -1000.0    
   3  -1000.0     -1000.0     -1000.0     -1000.0     -1000.0     -1000.0     -1000.0     -1000.0     -1000.0     -1000.0    
      -1000.0     -1000.0     -1000.0     -1000.0     -1000.0     -1000.0     -1000.0     -1000.0     -1000.0     -1000.0    
      -1000.0     -1000.0       74.42       74.37       74.30       74.23       74.15       74.06       73.97       73.87    
        73.78       73.70       73.62       73.55       73.49     -1000.0     -1000.0     -1000.0     -1000.0     -1000.0    
      -1000.0     -1000.0     -1000.0     -1000.0     -1000.0     -1000.0     -1000.0     -1000.0     -1000.0     -1000.0    
   4  -1000.0     -1000.0     -1000.0     -1000.0     -1000.0     -1000.0     -1000.0     -1000.0     -1000.0     -1000.0    
      -1000.0     -1000.0     -1000.0     -1000.0     -1000.0     -1000.0     -1000.0     -1000.0     -1000.0     -1000.0    
      -1000.0     -1000.0       74.48       74.42       74.34       74.25       74.16       74.06       73.97       73.87    
        73.77       73.68       73.59       73.50       73.43     -1000.0     -1000.0     -1000.0     -1000.0     -1000.0    
      -1000.0     -1000.0     -1000.0     -1000.0     -1000.0     -1000.0     -1000.0     -1000.0     -1000.0     -1000.0    
   5  -1000.0     -1000.0     -1000.0     -1000.0     -1000.0     -1000.0     -1000.0     -1000.0     -1000.0     -1000.0    
      -1000.0     -1000.0     -1000.0     -1000.0     -1000.0     -1000.0     -1000.0       75.17       75.12       75.03    
        74.91       74.77       74.60       74.48       74.38       74.28       74.18       74.07       73.97       73.86    
        73.76       73.65       73.54       73.43       73.30       73.11       72.93       72.78       72.63       72.49    
        72.37       72.26       72.17       72.11     -1000.0     -1000.0     -1000.0     -1000.0     -1000.0     -1000.0    
   6  -1000.0     -1000.0     -1000.0     -1000.0     -1000.0     -1000.0     -1000.0     -1000.0     -1000.0     -1000.0    
      -1000.0     -1000.0     -1000.0     -1000.0     -1000.0     -1000.0     -1000.0       75.23       75.16       75.06    
        74.94       74.80       74.66       74.53       74.42       74.31       74.19       74.08       73.97       73.86    
        73.74       73.63       73.51       73.38       73.24       73.08       72.92       72.76       72.62       72.48    
        72.35       72.23       72.13       72.05       71.98     -1000.0     -1000.0     -1000.0     -1000.0     -1000.0    
   7  -1000.0     -1000.0     -1000.0     -1000.0     -1000.0     -1000.0     -1000.0     -1000.0     -1000.0     -1000.0    
      -1000.0     -1000.0     -1000.0       75.86       75.80       75.68       75.54       75.35       75.22       75.10    
        74.97       74.84       74.71       74.58       74.45       74.33       74.21       74.09       73.97       73.85    
        73.73       73.61       73.48       73.35       73.20       73.05       72.90       72.74       72.60       72.46    
        72.32       72.20       72.08       71.98       71.90     -1000.0     -1000.0     -1000.0     -1000.0     -1000.0    
   8  -1000.0     -1000.0     -1000.0     -1000.0     -1000.0     -1000.0     -1000.0     -1000.0     -1000.0     -1000.0    
      -1000.0     -1000.0       75.97       75.91       75.83       75.71       75.57       75.42       75.28       75.15    
        75.02       74.88       74.75       74.61       74.48       74.36       74.23       74.10       73.98       73.85    
        73.72       73.59       73.46       73.32       73.17       73.02       72.87       72.72       72.57       72.43    
        72.29       72.15       72.02       71.89       71.75       71.56       71.42       71.35     -1000.0     -1000.0    
   9  -1000.0     -1000.0     -1000.0     -1000.0     -1000.0     -1000.0     -1000.0     -1000.0     -1000.0     -1000.0    
      -1000.0     -1000.0       76.01       75.97       75.88       75.76       75.62       75.48       75.34       75.20    
        75.06       74.92       74.78       74.65       74.51       74.38       74.25       74.11       73.98       73.85    
        73.71       73.58       73.44       73.29       73.15       73.00       72.85       72.69       72.54       72.39    
        72.25       72.10       71.96       71.81       71.66       71.50       71.36       71.27     -1000.0     -1000.0    
  10  -1000.0     -1000.0     -1000.0     -1000.0     -1000.0     -1000.0     -1000.0     -1000.0     -1000.0     -1000.0    
      -1000.0     -1000.0       76.09       76.04       75.94       75.82       75.68       75.54       75.39       75.25    
        75.10       74.96       74.82       74.68       74.54       74.40       74.26       74.12       73.99       73.85    
        73.71       73.57       73.42       73.28       73.13       72.97       72.82       72.67       72.51       72.36    
        72.20       72.05       71.89       71.73       71.57       71.41       71.25       71.11       70.95     -1000.0    
  11  -1000.0     -1000.0     -1000.0     -1000.0     -1000.0     -1000.0     -1000.0     -1000.0     -1000.0     -1000.0    
      -1000.0     -1000.0       76.20       76.13       76.03       75.89       75.74       75.60       75.45       75.30    
        75.15       75.00       74.85       74.71       74.56       74.42       74.28       74.13       73.99       73.85    
        73.70       73.56       73.41       73.26       73.11       72.95       72.80       72.64       72.48       72.32    
        72.16       72.00       71.83       71.66       71.49       71.31       71.13       70.95       70.80     -1000.0    
  12  -1000.0     -1000.0     -1000.0     -1000.0     -1000.0     -1000.0     -1000.0     -1000.0     -1000.0     -1000.0    
      -1000.0     -1000.0       76.35       76.25       76.12       75.97       75.81       75.65       75.50       75.34    
        75.19       75.04       74.89       74.74       74.59       74.44       74.29       74.14       74.00       73.85    
        73.70       73.55       73.40       73.24       73.09       72.93       72.77       72.61       72.45       72.28    
        72.12       71.95       71.77       71.59       71.41       71.21       71.01       70.78       70.48       70.00    
  13  -1000.0     -1000.0     -1000.0     -1000.0     -1000.0       77.64       77.59       77.50       77.39       77.25    
        77.07       76.85       76.57       76.39       76.22       76.05       75.88       75.71       75.55       75.39    
        75.23       75.07       74.92       74.76       74.61       74.46       74.30       74.15       74.00       73.85    
        73.70       73.54       73.39       73.23       73.07       72.91       72.75       72.58       72.42       72.25    
        72.08       71.90       71.72       71.53       71.34       71.13       70.91       70.66       70.36       70.00    
  14  -1000.0     -1000.0     -1000.0       77.78       77.75       77.68       77.61       77.51       77.40       77.26    
        77.09       76.90       76.69       76.49       76.31       76.12       75.94       75.77       75.60       75.43    
        75.27       75.11       74.95       74.79       74.63       74.47       74.32       74.16       74.01       73.85    
        73.70       73.54       73.38       73.22       73.06       72.89       72.73       72.56       72.39       72.22    
        72.04       71.86       71.67       71.48       71.28       71.06       70.83       70.58       70.31       70.00    
  15  -1000.0     -1000.0       77.83       77.80       77.76       77.70       77.62       77.53       77.42       77.28    
        77.12       76.95       76.76       76.57       76.38       76.18       76.00       75.82       75.64       75.47    
        75.30       75.14       74.97       74.81       74.65       74.49       74.33       74.17       74.01       73.85    
        73.69       73.53       73.37       73.21       73.04       72.88       72.71       72.54       72.36       72.19    
        72.01       71.82       71.63       71.43       71.23       71.01       70.78       70.54       70.27       70.00    
  16  -1000.0     -1000.0       77.84       77.82       77.78       77.72       77.64       77.55       77.44       77.31    
        77.16       76.99       76.81       76.63       76.44       76.24       76.05       75.86       75.68       75.51    
        75.34       75.17       75.00       74.83       74.67       74.51       74.34       74.18       74.02       73.86    
        73.69       73.53       73.37       73.20       73.03       72.86       72.69       72.52       72.34       72.16    
        71.98       71.79       71.59       71.39       71.19       70.97       70.74       70.50       70.26       70.00    
  17  -1000.0     -1000.0       77.86       77.84       77.79       77.74       77.66       77.57       77.46       77.33    
        77.19       77.03       76.86       76.68       76.49       76.29       76.09       75.90       75.72       75.54    
        75.37       75.19       75.02       74.85       74.69       74.52       74.35       74.19       74.02       73.86    
        73.69       73.53       73.36       73.19       73.02       72.85       72.68       72.50       72.32       72.14    
        71.95       71.76       71.56       71.36       71.15       70.94       70.71       70.48       70.24       70.00    
  18  -1000.0     -1000.0       77.88       77.85       77.81       77.75       77.68       77.59       77.48       77.36    
        77.22       77.06       76.90       76.72       76.53       76.32       76.13       75.94       75.75       75.57    
        75.39       75.22       75.04       74.87       74.70       74.53       74.36       74.20       74.03       73.86    
        73.70       73.53       73.36       73.19       73.01       72.84       72.66       72.48       72.30       72.12    
        71.93       71.74       71.54       71.34       71.13       70.91       70.69       70.47       70.23       70.00    
  19  -1000.0       77.93       77.90       77.87       77.83       77.77       77.69       77.60       77.50       77.38    
        77.24       77.09       76.93       76.75       76.56       76.36       76.16       75.97       75.78       75.60    
        75.41       75.24       75.06       74.89       74.71       74.54       74.37       74.20       74.04       73.87    
        73.70       73.53       73.35       73.18       73.01       72.83       72.65       72.47       72.29       72.10    
        71.91       71.72       71.52       71.32       71.11       70.89       70.68       70.45       70.23       70.00    
  20  -1000.0       77.94       77.92       77.89       77.84       77.78       77.71       77.62       77.51       77.40    
        77.26       77.11       76.95       76.77       76.59       76.38       76.19       75.99       75.80       75.62    
        75.43       75.25       75.08       74.90       74.73       74.55       74.38       74.21       74.04       73.87    
        73.70       73.53       73.35       73.18       73.00       72.82       72.64       72.46       72.28       72.09    
        71.90       71.70       71.50       71.30       71.09       70.88       70.67       70.45       70.22       70.00    
  21  -1000.0       77.94       77.93       77.90       77.85       77.79       77.72       77.63       77.53       77.41    
        77.28       77.13       76.97       76.80       76.61       76.41       76.21       76.01       75.82       75.64    
        75.45       75.27       75.09       74.91       74.74       74.56       74.39       74.22       74.04       73.87    
        73.70       73.53       73.35       73.18       73.00       72.82       72.64       72.45       72.27       72.08    
        71.88       71.69       71.49       71.29       71.08       70.87       70.66       70.44       70.22       70.00    
  22  -1000.0       77.95       77.93       77.90       77.86       77.80       77.73       77.64       77.54       77.42    
        77.29       77.15       76.99       76.81       76.62       76.42       76.22       76.03       75.84       75.65    
        75.46       75.28       75.10       74.92       74.75       74.57       74.40       74.22       74.05       73.88    
        73.70       73.53       73.35       73.17       73.00       72.81       72.63       72.45       72.26       72.07    
        71.88       71.68       71.48       71.28       71.07       70.86       70.65       70.43       70.22       70.00    
  23  -1000.0       77.95       77.94       77.91       77.86       77.81       77.73       77.65       77.55       77.43    
        77.30       77.16       77.00       76.82       76.64       76.44       76.24       76.04       75.85       75.66    
        75.48       75.29       75.11       74.93       74.75       74.58       74.40       74.23       74.05       73.88    
        73.70       73.53       73.35       73.17       72.99       72.81       72.63       72.44       72.25       72.06    
        71.87       71.67       71.47       71.27       71.06       70.86       70.64       70.43       70.22       70.00    
  24  -1000.0       77.95       77.94       77.91       77.87       77.81       77.74       77.65       77.55       77.44    
        77.31       77.16       77.01       76.83       76.65       76.44       76.25       76.05       75.86       75.67    
        75.48       75.30       75.12       74.94       74.76       74.58       74.41       74.23       74.06       73.88    
        73.71       73.53       73.35       73.17       72.99       72.81       72.63       72.44       72.25       72.06    
        71.87       71.67       71.47       71.27       71.06       70.85       70.64       70.43       70.22       70.00    
  25  -1000.0       77.95       77.93       77.91       77.86       77.81       77.74       77.65       77.55       77.44    
        77.31       77.17       77.01       76.84       76.65       76.45       76.25       76.06       75.86       75.67    
        75.49       75.30       75.12       74.94       74.76       74.59       74.41       74.23       74.06       73.88    
        73.71       73.53       73.35       73.18       73.00       72.81       72.63       72.44       72.25       72.06    
        71.86       71.67       71.47       71.26       71.06       70.85       70.64       70.43       70.21       70.00    
  26  -1000.0       77.95       77.93       77.90       77.86       77.80       77.73       77.65       77.55       77.44    
        77.31       77.17       77.01       76.84       76.65       76.45       76.25       76.06       75.87       75.68    
        75.49       75.31       75.12       74.94       74.77       74.59       74.41       74.24       74.06       73.89    
        73.71       73.54       73.36       73.18       73.00       72.82       72.63       72.44       72.25       72.06    
        71.87       71.67       71.47       71.26       71.06       70.85       70.64       70.43       70.21       70.00    
  27  -1000.0     -1000.0       77.91       77.89       77.85       77.79       77.73       77.64       77.55       77.43    
        77.31       77.16       77.01       76.84       76.65       76.45       76.25       76.06       75.86       75.67    
        75.49       75.30       75.12       74.94       74.77       74.59       74.41       74.24       74.06       73.89    
        73.72       73.54       73.36       73.18       73.00       72.82       72.64       72.45       72.26       72.06    
        71.87       71.67       71.47       71.26       71.06       70.85       70.64       70.43       70.21       70.00    
  28  -1000.0     -1000.0       77.90       77.88       77.84       77.78       77.72       77.63       77.54       77.43    
        77.30       77.16       77.00       76.83       76.64       76.44       76.24       76.05       75.86       75.67    
        75.48       75.30       75.12       74.94       74.76       74.59       74.41       74.24       74.07       73.89    
        73.72       73.54       73.37       73.19       73.01       72.83       72.64       72.45       72.26       72.07    
        71.87       71.67       71.47       71.27       71.06       70.85       70.64       70.43       70.21       70.00    
  29  -1000.0     -1000.0       77.88       77.86       77.83       77.77       77.70       77.62       77.53       77.42    
        77.29       77.15       76.99       76.82       76.64       76.43       76.24       76.04       75.85       75.66    
        75.48       75.29       75.11       74.94       74.76       74.59       74.41       74.24       74.07       73.90    
        73.72       73.55       73.37       73.20       73.02       72.84       72.65       72.46       72.27       72.08    
        71.88       71.68       71.48       71.27       71.06       70.85       70.64       70.43       70.22       70.00    
  30  -1000.0     -1000.0       77.87       77.85       77.81       77.75       77.68       77.60       77.51       77.40    
        77.28       77.14       76.98       76.81       76.62       76.42       76.22       76.03       75.84       75.65    
        75.47       75.28       75.11       74.93       74.76       74.58       74.41       74.24       74.07       73.90    
        73.73       73.56       73.38       73.21       73.03       72.85       72.66       72.48       72.28       72.09    
        71.89       71.69       71.49       71.28       71.07       70.86       70.65       70.43       70.22       70.00    
  31  -1000.0     -1000.0       77.87       77.85       77.80       77.72       77.66       77.58       77.49       77.39    
        77.27       77.13       76.97       76.80       76.61       76.40       76.20       76.01       75.82       75.63    
        75.45       75.27       75.10       74.92       74.75       74.58       74.41       74.24       74.07       73.90    
        73.73       73.56       73.39       73.22       73.04       72.86       72.68       72.49       72.30       72.10    
        71.91       71.70       71.50       71.29       71.08       70.86       70.65       70.43       70.22       70.00    
  32  -1000.0     -1000.0     -1000.0     -1000.0     -1000.0       77.66       77.62       77.56       77.48       77.37    
        77.25       77.11       76.95       76.78       76.59       76.38       76.18       75.99       75.80       75.61    
        75.43       75.26       75.08       74.91       74.74       74.57       74.41       74.24       74.07       73.91    
        73.74       73.57       73.40       73.23       73.05       72.88       72.69       72.51       72.32       72.12    
        71.92       71.72       71.51       71.30       71.08       70.87       70.65       70.43       70.22       70.00    
  33  -1000.0     -1000.0     -1000.0     -1000.0     -1000.0       77.62       77.59       77.54       77.46       77.36    
        77.24       77.10       76.94       76.76       76.56       76.36       76.15       75.96       75.77       75.59    
        75.41       75.24       75.06       74.90       74.73       74.57       74.40       74.24       74.08       73.91    
        73.75       73.58       73.41       73.24       73.07       72.90       72.72       72.53       72.34       72.14    
        71.94       71.74       71.52       71.31       71.09       70.87       70.66       70.44       70.22       70.00    
  34  -1000.0     -1000.0     -1000.0     -1000.0     -1000.0       77.60       77.57       77.52       77.45       77.35    
        77.23       77.08       76.92       76.73       76.53       76.32       76.12       75.93       75.74       75.56    
        75.38       75.21       75.05       74.88       74.72       74.56       74.40       74.24       74.08       73.92    
        73.76       73.59       73.43       73.26       73.09       72.92       72.74       72.56       72.37       72.17    
        71.97       71.76       71.54       71.32       71.10       70.88       70.66       70.44       70.22       70.00    
  35  -1000.0     -1000.0     -1000.0     -1000.0     -1000.0       77.58       77.56       77.51       77.44       77.34    
        77.22       77.07       76.90       76.71       76.50       76.28       76.08       75.88       75.70       75.52    
        75.35       75.19       75.02       74.86       74.70       74.55       74.39       74.23       74.08       73.92    
        73.76       73.61       73.44       73.28       73.12       72.95       72.77       72.59       72.40       72.21    
        72.00       71.78       71.56       71.34       71.11       70.88       70.66       70.44       70.22       70.00    
  36  -1000.0     -1000.0     -1000.0     -1000.0     -1000.0       77.57       77.55       77.51       77.44       77.35    
        77.22       77.07       76.89       76.68       76.45       76.23       76.02       75.83       75.65       75.48    
        75.32       75.15       75.00       74.84       74.69       74.54       74.38       74.23       74.08       73.93    
        73.77       73.62       73.46       73.30       73.14       72.98       72.81       72.63       72.44       72.25    
        72.04       71.82       71.59       71.35       71.12       70.88       70.66       70.43       70.22       70.00    
  37  -1000.0     -1000.0     -1000.0     -1000.0     -1000.0       77.57       77.55       77.51       77.45       77.36    
        77.24       77.08       76.88       76.64       76.39       76.15       75.95       75.76       75.59       75.43    
        75.27       75.12       74.97       74.82       74.67       74.52       74.38       74.23       74.08       73.94    
        73.79       73.64       73.48       73.33       73.17       73.01       72.85       72.68       72.50       72.30    
        72.09       71.85       71.61       71.37       71.12       70.88       70.65       70.42       70.21       70.00    
  38  -1000.0     -1000.0     -1000.0     -1000.0     -1000.0       77.57       77.55       77.52       77.46       77.39    
        77.28       77.13       76.88       76.61       76.29       76.05       75.85       75.69       75.53       75.38    
        75.23       75.08       74.94       74.79       74.65       74.51       74.37       74.23       74.09       73.94    
        73.80       73.65       73.51       73.36       73.21       73.05       72.90       72.73       72.57       72.38    
        72.16       71.90       71.64       71.38       71.12       70.87       70.62       70.40       70.20       70.00    
  39  -1000.0     -1000.0     -1000.0     -1000.0     -1000.0     -1000.0       77.55       77.52       77.48       77.42    
        77.34       77.24     -1000.0     -1000.0       76.10       75.89       75.74       75.59       75.46       75.32    
        75.18       75.04       74.91       74.77       74.63       74.50       74.36       74.22       74.09       73.95    
        73.81       73.67       73.53       73.38       73.24       73.09       72.95       72.80       72.65       72.48    
        72.28       71.95       71.66       71.39       71.12       70.86       70.57       70.37       70.18       70.00    
  40  -1000.0     -1000.0     -1000.0     -1000.0     -1000.0     -1000.0       77.55       77.53       77.50       77.46    
        77.41     -1000.0     -1000.0     -1000.0     -1000.0       75.68       75.60       75.50       75.38       75.26    
        75.14       75.01       74.87       74.74       74.61       74.48       74.35       74.22       74.09       73.96    
        73.83       73.69       73.55       73.41       73.27       73.14       73.00       72.87       72.74       72.62    
        72.53     -1000.0     -1000.0     -1000.0     -1000.0     -1000.0       70.45       70.32       70.14       70.00    
  41  -1000.0     -1000.0     -1000.0     -1000.0     -1000.0     -1000.0     -1000.0       77.53       77.52       77.50    
      -1000.0     -1000.0     -1000.0     -1000.0     -1000.0       75.54       75.49       75.42       75.32       75.21    
        75.09       74.97       74.84       74.71       74.59       74.46       74.34       74.22       74.10       73.97    
        73.85       73.72       73.58       73.44       73.31       73.18       73.05       72.93       72.83       72.74    
        72.69     -1000.0     -1000.0     -1000.0     -1000.0     -1000.0     -1000.0     -1000.0       70.07       70.00    
  42  -1000.0     -1000.0     -1000.0     -1000.0     -1000.0     -1000.0     -1000.0     -1000.0     -1000.0     -1000.0    
      -1000.0     -1000.0     -1000.0     -1000.0     -1000.0       75.46       75.42       75.35       75.27       75.17    
        75.05       74.93       74.81       74.68       74.56       74.45       74.33       74.22       74.11       73.99    
        73.87       73.74       73.61       73.47       73.34       73.21       73.09       72.99       72.89       72.83    
        72.79     -1000.0     -1000.0     -1000.0     -1000.0     -1000.0     -1000.0     -1000.0     -1000.0     -1000.0    
  43  -1000.0     -1000.0     -1000.0     -1000.0     -1000.0     -1000.0     -1000.0     -1000.0     -1000.0     -1000.0    
      -1000.0     -1000.0     -1000.0     -1000.0     -1000.0       75.41       75.36       75.30       75.23       75.13    
        75.02       74.90       74.77       74.65       74.54       74.43       74.32       74.22       74.12       74.01    
        73.90       73.78       73.63       73.49       73.36       73.23       73.12       73.02       72.94       72.88    
        72.85     -1000.0     -1000.0     -1000.0     -1000.0     -1000.0     -1000.0     -1000.0     -1000.0     -1000.0    
  44  -1000.0     -1000.0     -1000.0     -1000.0     -1000.0     -1000.0     -1000.0     -1000.0     -1000.0     -1000.0    
      -1000.0     -1000.0     -1000.0     -1000.0     -1000.0     -1000.0       75.32       75.28       75.21       75.12    
        75.01       74.88       74.73       74.62       74.50       74.40       74.31       74.22       74.13       74.04    
        73.94       73.83       73.66       73.51       73.37       73.25       73.14       73.04       72.96       72.91    
        72.88     -1000.0     -1000.0     -1000.0     -1000.0     -1000.0     -1000.0     -1000.0     -1000.0     -1000.0    
  45  -1000.0     -1000.0     -1000.0     -1000.0     -1000.0     -1000.0     -1000.0     -1000.0     -1000.0     -1000.0    
      -1000.0     -1000.0     -1000.0     -1000.0     -1000.0     -1000.0     -1000.0     -1000.0     -1000.0     -1000.0    
      -1000.0     -1000.0       74.65       74.58       74.46       74.37       74.29       74.21       74.14       74.07    
        74.00       73.95     -1000.0     -1000.0     -1000.0     -1000.0     -1000.0     -1000.0     -1000.0     -1000.0    
      -1000.0     -1000.0     -1000.0     -1000.0     -1000.0     -1000.0     -1000.0     -1000.0     -1000.0     -1000.0    
  46  -1000.0     -1000.0     -1000.0     -1000.0     -1000.0     -1000.0     -1000.0     -1000.0     -1000.0     -1000.0    
      -1000.0     -1000.0     -1000.0     -1000.0     -1000.0     -1000.0     -1000.0     -1000.0     -1000.0     -1000.0    
      -1000.0     -1000.0     -1000.0     -1000.0       74.39       74.32       74.26       74.20       74.15       74.10    
        74.05       74.02     -1000.0     -1000.0     -1000.0     -1000.0     -1000.0     -1000.0     -1000.0     -1000.0    
      -1000.0     -1000.0     -1000.0     -1000.0     -1000.0     -1000.0     -1000.0     -1000.0     -1000.0     -1000.0    
  47  -1000.0     -1000.0     -1000.0     -1000.0     -1000.0     -1000.0     -1000.0     -1000.0     -1000.0     -1000.0    
      -1000.0     -1000.0     -1000.0     -1000.0     -1000.0     -1000.0     -1000.0     -1000.0     -1000.0     -1000.0    
      -1000.0     -1000.0     -1000.0     -1000.0     -1000.0       74.26       74.23       74.20       74.16       74.12    
        74.08       74.05     -1000.0     -1000.0     -1000.0     -1000.0     -1000.0     -1000.0     -1000.0     -1000.0    
      -1000.0     -1000.0     -1000.0     -1000.0     -1000.0     -1000.0     -1000.0     -1000.0     -1000.0     -1000.0    
  48  -1000.0     -1000.0     -1000.0     -1000.0     -1000.0     -1000.0     -1000.0     -1000.0     -1000.0     -1000.0    
      -1000.0     -1000.0     -1000.0     -1000.0     -1000.0     -1000.0     -1000.0     -1000.0     -1000.0     -1000.0    
      -1000.0     -1000.0     -1000.0     -1000.0     -1000.0       74.23       74.22       74.19       74.16       74.13    
        74.11     -1000.0     -1000.0     -1000.0     -1000.0     -1000.0     -1000.0     -1000.0     -1000.0     -1000.0    
      -1000.0     -1000.0     -1000.0     -1000.0     -1000.0     -1000.0     -1000.0     -1000.0     -1000.0     -1000.0    
  49  -1000.0     -1000.0     -1000.0     -1000.0     -1000.0     -1000.0     -1000.0     -1000.0     -1000.0     -1000.0    
      -1000.0     -1000.0     -1000.0     -1000.0     -1000.0     -1000.0     -1000.0     -1000.0     -1000.0     -1000.0    
      -1000.0     -1000.0     -1000.0     -1000.0     -1000.0       74.22       74.21       74.19       74.17       74.15    
      -1000.0     -1000.0     -1000.0     -1000.0     -1000.0     -1000.0     -1000.0     -1000.0     -1000.0     -1000.0    
      -1000.0     -1000.0     -1000.0     -1000.0     -1000.0     -1000.0     -1000.0     -1000.0     -1000.0     -1000.0    
  50  -1000.0     -1000.0     -1000.0     -1000.0     -1000.0     -1000.0     -1000.0     -1000.0     -1000.0     -1000.0    
      -1000.0     -1000.0     -1000.0     -1000.0     -1000.0     -1000.0     -1000.0     -1000.0     -1000.0     -1000.0    
      -1000.0     -1000.0     -1000.0     -1000.0     -1000.0     -1000.0     -1000.0     -1000.0     -1000.0     -1000.0    
      -1000.0     -1000.0     -1000.0     -1000.0     -1000.0     -1000.0     -1000.0     -1000.0     -1000.0     -1000.0    
      -1000.0     -1000.0     -1000.0     -1000.0     -1000.0     -1000.0     -1000.0     -1000.0     -1000.0     -1000.0    
1
              HEAD IN LAYER   2 AT END OF TIME STEP   1 IN STRESS PERIOD    1
  ---------------------------------------------------------------------------

            1           2           3           4           5           6           7           8           9          10
           11          12          13          14          15          16          17          18          19          20
           21          22          23          24          25          26          27          28          29          30
           31          32          33          34          35          36          37          38          39          40
           41          42          43          44          45          46          47          48          49          50
 ........................................................................................................................
   1  -1000.0     -1000.0     -1000.0     -1000.0     -1000.0     -1000.0     -1000.0     -1000.0     -1000.0     -1000.0    
      -1000.0     -1000.0     -1000.0     -1000.0     -1000.0     -1000.0     -1000.0     -1000.0     -1000.0     -1000.0    
      -1000.0     -1000.0     -1000.0     -1000.0     -1000.0     -1000.0     -1000.0     -1000.0     -1000.0     -1000.0    
      -1000.0     -1000.0     -1000.0     -1000.0     -1000.0     -1000.0     -1000.0     -1000.0     -1000.0     -1000.0    
      -1000.0     -1000.0     -1000.0     -1000.0     -1000.0     -1000.0     -1000.0     -1000.0     -1000.0     -1000.0    
   2  -1000.0     -1000.0     -1000.0     -1000.0     -1000.0     -1000.0     -1000.0     -1000.0     -1000.0     -1000.0    
      -1000.0     -1000.0     -1000.0     -1000.0     -1000.0     -1000.0     -1000.0     -1000.0     -1000.0     -1000.0    
      -1000.0     -1000.0     -1000.0       74.32       74.28       74.22       74.14       74.05       73.97       73.88    
        73.79       73.71       73.64       73.60     -1000.0     -1000.0     -1000.0     -1000.0     -1000.0     -1000.0    
      -1000.0     -1000.0     -1000.0     -1000.0     -1000.0     -1000.0     -1000.0     -1000.0     -1000.0     -1000.0    
   3  -1000.0     -1000.0     -1000.0     -1000.0     -1000.0     -1000.0     -1000.0     -1000.0     -1000.0     -1000.0    
      -1000.0     -1000.0     -1000.0     -1000.0     -1000.0     -1000.0     -1000.0     -1000.0     -1000.0     -1000.0    
      -1000.0     -1000.0       74.42       74.37       74.30       74.23       74.15       74.06       73.97       73.87    
        73.78       73.70       73.62       73.55       73.49     -1000.0     -1000.0     -1000.0     -1000.0     -1000.0    
      -1000.0     -1000.0     -1000.0     -1000.0     -1000.0     -1000.0     -1000.0     -1000.0     -1000.0     -1000.0    
   4  -1000.0     -1000.0     -1000.0     -1000.0     -1000.0     -1000.0     -1000.0     -1000.0     -1000.0     -1000.0    
      -1000.0     -1000.0     -1000.0     -1000.0     -1000.0     -1000.0     -1000.0     -1000.0     -1000.0     -1000.0    
      -1000.0     -1000.0       74.48       74.42       74.34       74.25       74.16       74.06       73.97       73.87    
        73.77       73.68       73.59       73.50       73.43     -1000.0     -1000.0     -1000.0     -1000.0     -1000.0    
      -1000.0     -1000.0     -1000.0     -1000.0     -1000.0     -1000.0     -1000.0     -1000.0     -1000.0     -1000.0    
   5  -1000.0     -1000.0     -1000.0     -1000.0     -1000.0     -1000.0     -1000.0     -1000.0     -1000.0     -1000.0    
      -1000.0     -1000.0     -1000.0     -1000.0     -1000.0     -1000.0     -1000.0       75.17       75.12       75.03    
        74.91       74.77       74.60       74.48       74.38       74.28       74.18       74.07       73.97       73.86    
        73.76       73.65       73.54       73.43       73.30       73.11       72.93       72.78       72.63       72.49    
        72.37       72.26       72.17       72.11     -1000.0     -1000.0     -1000.0     -1000.0     -1000.0     -1000.0    
   6  -1000.0     -1000.0     -1000.0     -1000.0     -1000.0     -1000.0     -1000.0     -1000.0     -1000.0     -1000.0    
      -1000.0     -1000.0     -1000.0     -1000.0     -1000.0     -1000.0     -1000.0       75.23       75.16       75.06    
        74.94       74.80       74.66       74.53       74.42       74.31       74.19       74.08       73.97       73.86    
        73.74       73.63       73.51       73.38       73.24       73.08       72.92       72.76       72.62       72.48    
        72.35       72.23       72.13       72.05       71.98     -1000.0     -1000.0     -1000.0     -1000.0     -1000.0    
   7  -1000.0     -1000.0     -1000.0     -1000.0     -1000.0     -1000.0     -1000.0     -1000.0     -1000.0     -1000.0    
      -1000.0     -1000.0     -1000.0       75.86       75.80       75.68       75.54       75.35       75.22       75.10    
        74.97       74.84       74.71       74.58       74.45       74.33       74.21       74.09       73.97       73.85    
        73.73       73.61       73.48       73.35       73.20       73.05       72.90       72.74       72.60       72.46    
        72.32       72.20       72.08       71.98       71.90     -1000.0     -1000.0     -1000.0     -1000.0     -1000.0    
   8  -1000.0     -1000.0     -1000.0     -1000.0     -1000.0     -1000.0     -1000.0     -1000.0     -1000.0     -1000.0    
      -1000.0     -1000.0       75.97       75.91       75.83       75.71       75.57       75.42       75.28       75.15    
        75.02       74.88       74.75       74.61       74.48       74.36       74.23       74.10       73.98       73.85    
        73.72       73.59       73.46       73.32       73.17       73.02       72.87       72.72       72.57       72.43    
        72.29       72.15       72.02       71.89       71.75       71.56       71.42       71.35     -1000.0     -1000.0    
   9  -1000.0     -1000.0     -1000.0     -1000.0     -1000.0     -1000.0     -1000.0     -1000.0     -1000.0     -1000.0    
      -1000.0     -1000.0       76.01       75.97       75.88       75.76       75.62       75.48       75.34       75.20    
        75.06       74.92       74.78       74.65       74.51       74.38       74.25       74.11       73.98       73.85    
        73.71       73.58       73.44       73.29       73.15       73.00       72.85       72.69       72.54       72.39    
        72.25       72.10       71.96       71.81       71.66       71.50       71.36       71.27     -1000.0     -1000.0    
  10  -1000.0     -1000.0     -1000.0     -1000.0     -1000.0     -1000.0     -1000.0     -1000.0     -1000.0     -1000.0    
      -1000.0     -1000.0       76.09       76.04       75.94       75.82       75.68       75.54       75.39       75.25    
        75.10       74.96       74.82       74.68       74.54       74.40       74.26       74.12       73.99       73.85    
        73.71       73.57       73.42       73.28       73.13       72.97       72.82       72.67       72.51       72.36    
        72.20       72.05       71.89       71.73       71.57       71.41       71.25       71.11       70.95     -1000.0    
  11  -1000.0     -1000.0     -1000.0     -1000.0     -1000.0     -1000.0     -1000.0     -1000.0     -1000.0     -1000.0    
      -1000.0     -1000.0       76.20       76.13       76.03       75.89       75.74       75.60       75.45       75.30    
        75.15       75.00       74.85       74.71       74.56       74.42       74.28       74.13       73.99       73.85    
        73.70       73.56       73.41       73.26       73.11       72.95       72.80       72.64       72.48       72.32    
        72.16       72.00       71.83       71.66       71.49       71.31       71.13       70.95       70.80     -1000.0    
  12  -1000.0     -1000.0     -1000.0     -1000.0     -1000.0     -1000.0     -1000.0     -1000.0     -1000.0     -1000.0    
      -1000.0     -1000.0       76.35       76.25       76.12       75.97       75.81       75.65       75.50       75.34    
        75.19       75.04       74.89       74.74       74.59       74.44       74.29       74.14       74.00       73.85    
        73.70       73.55       73.40       73.24       73.09       72.93       72.77       72.61       72.45       72.28    
        72.12       71.95       71.77       71.59       71.41       71.21       71.01       70.78       70.48       70.00    
  13  -1000.0     -1000.0     -1000.0     -1000.0     -1000.0       77.64       77.59       77.50       77.39       77.25    
        77.07       76.85       76.57       76.39       76.22       76.05       75.88       75.71       75.55       75.39    
        75.23       75.07       74.92       74.76       74.61       74.46       74.30       74.15       74.00       73.85    
        73.70       73.54       73.39       73.23       73.07       72.91       72.75       72.58       72.42       72.25    
        72.08       71.90       71.72       71.53       71.34       71.13       70.91       70.66       70.36       70.00    
  14  -1000.0     -1000.0     -1000.0       77.78       77.75       77.68       77.61       77.51       77.40       77.26    
        77.09       76.90       76.69       76.49       76.31       76.12       75.94       75.77       75.60       75.43    
        75.27       75.11       74.95       74.79       74.63       74.47       74.32       74.16       74.01       73.85    
        73.70       73.54       73.38       73.22       73.06       72.89       72.73       72.56       72.39       72.22    
        72.04       71.86       71.67       71.48       71.28       71.06       70.83       70.58       70.31       70.00    
  15  -1000.0     -1000.0       77.83       77.80       77.76       77.70       77.62       77.53       77.42       77.28    
        77.12       76.95       76.76       76.57       76.38       76.18       76.00       75.82       75.64       75.47    
        75.30       75.14       74.97       74.81       74.65       74.49       74.33       74.17       74.01       73.85    
        73.69       73.53       73.37       73.21       73.04       72.88       72.71       72.54       72.36       72.19    
        72.01       71.82       71.63       71.43       71.23       71.01       70.78       70.54       70.27       70.00    
  16  -1000.0     -1000.0       77.84       77.82       77.78       77.72       77.64       77.55       77.44       77.31    
        77.16       76.99       76.81       76.63       76.44       76.24       76.05       75.86       75.68       75.51    
        75.34       75.17       75.00       74.83       74.67       74.51       74.34       74.18       74.02       73.86    
        73.69       73.53       73.37       73.20       73.03       72.86       72.69       72.52       72.34       72.16    
        71.98       71.79       71.59       71.39       71.19       70.97       70.74       70.50       70.26       70.00    
  17  -1000.0     -1000.0       77.86       77.84       77.79       77.74       77.66       77.57       77.46       77.33    
        77.19       77.03       76.86       76.68       76.49       76.29       76.09       75.90       75.72       75.54    
        75.37       75.19       75.02       74.85       74.69       74.52       74.35       74.19       74.02       73.86    
        73.69       73.53       73.36       73.19       73.02       72.85       72.68       72.50       72.32       72.14    
        71.95       71.76       71.56       71.36       71.15       70.94       70.71       70.48       70.24       70.00    
  18  -1000.0     -1000.0       77.88       77.85       77.81       77.75       77.68       77.59       77.48       77.36    
        77.22       77.06       76.90       76.72       76.53       76.32       76.13       75.94       75.75       75.57    
        75.39       75.22       75.04       74.87       74.70       74.53       74.36       74.20       74.03       73.86    
        73.70       73.53       73.36       73.19       73.01       72.84       72.66       72.48       72.30       72.12    
        71.93       71.74       71.54       71.34       71.13       70.91       70.69       70.47       70.23       70.00    
  19  -1000.0       77.93       77.90       77.87       77.83       77.77       77.69       77.60       77.50       77.38    
        77.24       77.09       76.93       76.75       76.56       76.36       76.16       75.97       75.78       75.60    
        75.41       75.24       75.06       74.89       74.71       74.54       74.37       74.20       74.04       73.87    
        73.70       73.53       73.35       73.18       73.01       72.83       72.65       72.47       72.29       72.10    
        71.91       71.72       71.52       71.32       71.11       70.89       70.68       70.45       70.23       70.00    
  20  -1000.0       77.94       77.92       77.89       77.84       77.78       77.71       77.62       77.51       77.40    
        77.26       77.11       76.95       76.77       76.59       76.38       76.19       75.99       75.80       75.62    
        75.43       75.25       75.08       74.90       74.73       74.55       74.38       74.21       74.04       73.87    
        73.70       73.53       73.35       73.18       73.00       72.82       72.64       72.46       72.28       72.09    
        71.90       71.70       71.50       71.30       71.09       70.88       70.67       70.45       70.22       70.00    
  21  -1000.0       77.94       77.93       77.90       77.85       77.79       77.72       77.63       77.53       77.41    
        77.28       77.13       76.97       76.80       76.61       76.41       76.21       76.01       75.82       75.64    
        75.45       75.27       75.09       74.91       74.74       74.56       74.39       74.22       74.04       73.87    
        73.70       73.53       73.35       73.18       73.00       72.82       72.64       72.45       72.27       72.08    
        71.88       71.69       71.49       71.29       71.08       70.87       70.66       70.44       70.22       70.00    
  22  -1000.0       77.95       77.93       77.90       77.86       77.80       77.73       77.64       77.54       77.42    
        77.29       77.15       76.99       76.81       76.62       76.42       76.22       76.03       75.84       75.65    
        75.46       75.28       75.10       74.92       74.75       74.57       74.40       74.22       74.05       73.88    
        73.70       73.53       73.35       73.17       73.00       72.81       72.63       72.45       72.26       72.07    
        71.88       71.68       71.48       71.28       71.07       70.86       70.65       70.43       70.22       70.00    
  23  -1000.0       77.95       77.94       77.91       77.86       77.81       77.73       77.65       77.55       77.43    
        77.30       77.16       77.00       76.82       76.64       76.44       76.24       76.04       75.85       75.66    
        75.48       75.29       75.11       74.93       74.75       74.58       74.40       74.23       74.05       73.88    
        73.70       73.53       73.35       73.17       72.99       72.81       72.63       72.44       72.25       72.06    
        71.87       71.67       71.47       71.27       71.06       70.86       70.64       70.43       70.22       70.00    
  24  -1000.0       77.95       77.94       77.91       77.87       77.81       77.74       77.65       77.55       77.44    
        77.31       77.16       77.01       76.83       76.65       76.44       76.25       76.05       75.86       75.67    
        75.48       75.30       75.12       74.94       74.76       74.58       74.41       74.23       74.06       73.88    
        73.71       73.53       73.35       73.17       72.99       72.81       72.63       72.44       72.25       72.06    
        71.87       71.67       71.47       71.27       71.06       70.85       70.64       70.43       70.22       70.00    
  25  -1000.0       77.95       77.93       77.91       77.86       77.81       77.74       77.65       77.55       77.44    
        77.31       77.17       77.01       76.84       76.65       76.45       76.25       76.06       75.86       75.67    
        75.49       75.30       75.12       74.94       74.76       74.59       74.41       74.23       74.06       73.88    
        73.71       73.53       73.35       73.18       73.00       72.81       72.63       72.44       72.25       72.06    
        71.86       71.67       71.47       71.26       71.06       70.85       70.64       70.43       70.21       70.00    
  26  -1000.0       77.95       77.93       77.90       77.86       77.80       77.73       77.65       77.55       77.44    
        77.31       77.17       77.01       76.84       76.65       76.45       76.25       76.06       75.87       75.68    
        75.49       75.31       75.12       74.94       74.77       74.59       74.41       74.24       74.06       73.89    
        73.71       73.54       73.36       73.18       73.00       72.82       72.63       72.44       72.25       72.06    
        71.87       71.67       71.47       71.26       71.06       70.85       70.64       70.43       70.21       70.00    
  27  -1000.0     -1000.0       77.91       77.89       77.85       77.79       77.73       77.64       77.55       77.43    
        77.31       77.16       77.01       76.84       76.65       76.45       76.25       76.06       75.86       75.67    
        75.49       75.30       75.12       74.94       74.77       74.59       74.41       74.24       74.06       73.89    
        73.72       73.54       73.36       73.18       73.00       72.82       72.64       72.45       72.26       72.06    
        71.87       71.67       71.47       71.26       71.06       70.85       70.64       70.43       70.21       70.00    
  28  -1000.0     -1000.0       77.90       77.88       77.84       77.78       77.72       77.63       77.54       77.43    
        77.30       77.16       77.00       76.83       76.64       76.44       76.24       76.05       75.86       75.67    
        75.48       75.30       75.12       74.94       74.76       74.59       74.41       74.24       74.07       73.89    
        73.72       73.54       73.37       73.19       73.01       72.83       72.64       72.45       72.26       72.07    
        71.87       71.67       71.47       71.27       71.06       70.85       70.64       70.43       70.21       70.00    
  29  -1000.0     -1000.0       77.88       77.86       77.83       77.77       77.70       77.62       77.53       77.42    
        77.29       77.15       76.99       76.82       76.64       76.43       76.24       76.04       75.85       75.66    
        75.48       75.29       75.11       74.94       74.76       74.59       74.41       74.24       74.07       73.90    
        73.72       73.55       73.37       73.20       73.02       72.84       72.65       72.46       72.27       72.08    
        71.88       71.68       71.48       71.27       71.06       70.85       70.64       70.43       70.22       70.00    
  30  -1000.0     -1000.0       77.87       77.85       77.81       77.75       77.68       77.60       77.51       77.40    
        77.28       77.14       76.98       76.81       76.62       76.42       76.22       76.03       75.84       75.65    
        75.47       75.28       75.11       74.93       74.76       74.58       74.41       74.24       74.07       73.90    
        73.73       73.56       73.38       73.21       73.03       72.85       72.66       72.48       72.28       72.09    
        71.89       71.69       71.49       71.28       71.07       70.86       70.65       70.43       70.22       70.00    
  31  -1000.0     -1000.0       77.87       77.85       77.80       77.72       77.66       77.58       77.49       77.39    
        77.27       77.13       76.97       76.80       76.61       76.40       76.20       76.01       75.82       75.63    
        75.45       75.27       75.10       74.92       74.75       74.58       74.41       74.24       74.07       73.90    
        73.73       73.56       73.39       73.22       73.04       72.86       72.68       72.49       72.30       72.10    
        71.91       71.70       71.50       71.29       71.08       70.86       70.65       70.43       70.22       70.00    
  32  -1000.0     -1000.0     -1000.0     -1000.0     -1000.0       77.66       77.62       77.56       77.48       77.37    
        77.25       77.11       76.95       76.78       76.59       76.38       76.18       75.99       75.80       75.61    
        75.43       75.26       75.08       74.91       74.74       74.57       74.41       74.24       74.07       73.91    
        73.74       73.57       73.40       73.23       73.05       72.88       72.69       72.51       72.32       72.12    
        71.92       71.72       71.51       71.30       71.08       70.87       70.65       70.43       70.22       70.00    
  33  -1000.0     -1000.0     -1000.0     -1000.0     -1000.0       77.62       77.59       77.54       77.46       77.36    
        77.24       77.10       76.94       76.76       76.56       76.36       76.15       75.96       75.77       75.59    
        75.41       75.24       75.06       74.90       74.73       74.57       74.40       74.24       74.08       73.91    
        73.75       73.58       73.41       73.24       73.07       72.90       72.72       72.53       72.34       72.14    
        71.94       71.74       71.52       71.31       71.09       70.87       70.66       70.44       70.22       70.00    
  34  -1000.0     -1000.0     -1000.0     -1000.0     -1000.0       77.60       77.57       77.52       77.45       77.35    
        77.23       77.08       76.92       76.73       76.53       76.32       76.12       75.93       75.74       75.56    
        75.38       75.21       75.05       74.88       74.72       74.56       74.40       74.24       74.08       73.92    
        73.76       73.59       73.43       73.26       73.09       72.92       72.74       72.56       72.37       72.17    
        71.97       71.76       71.54       71.32       71.10       70.88       70.66       70.44       70.22       70.00    
  35  -1000.0     -1000.0     -1000.0     -1000.0     -1000.0       77.58       77.56       77.51       77.44       77.34    
        77.22       77.07       76.90       76.71       76.50       76.28       76.08       75.88       75.70       75.52    
        75.35       75.19       75.02       74.86       74.70       74.55       74.39       74.23       74.08       73.92    
        73.76       73.61       73.44       73.28       73.12       72.95       72.77       72.59       72.40       72.21    
        72.00       71.78       71.56       71.34       71.11       70.88       70.66       70.44       70.22       70.00    
  36  -1000.0     -1000.0     -1000.0     -1000.0     -1000.0       77.57       77.55       77.51       77.44       77.35    
        77.22       77.07       76.89       76.68       76.45       76.23       76.02       75.83       75.65       75.48    
        75.32       75.15       75.00       74.84       74.69       74.54       74.38       74.23       74.08       73.93    
        73.77       73.62       73.46       73.30       73.14       72.98       72.81       72.63       72.44       72.25    
        72.04       71.82       71.59       71.35       71.12       70.88       70.66       70.43       70.22       70.00    
  37  -1000.0     -1000.0     -1000.0     -1000.0     -1000.0       77.57       77.55       77.51       77.45       77.36    
        77.24       77.08       76.88       76.64       76.39       76.15       75.95       75.76       75.59       75.43    
        75.27       75.12       74.97       74.82       74.67       74.52       74.38       74.23       74.08       73.94    
        73.79       73.64       73.48       73.33       73.17       73.01       72.85       72.68       72.50       72.30    
        72.09       71.85       71.61       71.37       71.12       70.88       70.65       70.42       70.21       70.00    
  38  -1000.0     -1000.0     -1000.0     -1000.0     -1000.0       77.57       77.55       77.52       77.46       77.38    
        77.28       77.13       76.88       76.61       76.29       76.05       75.85       75.69       75.53       75.38    
        75.23       75.08       74.94       74.79       74.65       74.51       74.37       74.23       74.09       73.94    
        73.80       73.65       73.51       73.36       73.21       73.05       72.90       72.73       72.57       72.38    
        72.16       71.90       71.64       71.38       71.12       70.87       70.62       70.40       70.20       70.00    
  39  -1000.0     -1000.0     -1000.0     -1000.0     -1000.0     -1000.0       77.55       77.52       77.48       77.42    
        77.34       77.24     -1000.0     -1000.0       76.10       75.89       75.74       75.59       75.46       75.32    
        75.18       75.04       74.91       74.77       74.63       74.50       74.36       74.22       74.09       73.95    
        73.81       73.67       73.53       73.38       73.24       73.09       72.95       72.80       72.65       72.48    
        72.28       71.95       71.66       71.39       71.12       70.86       70.57       70.37       70.18       70.00    
  40  -1000.0     -1000.0     -1000.0     -1000.0     -1000.0     -1000.0       77.55       77.53       77.50       77.46    
        77.41     -1000.0     -1000.0     -1000.0     -1000.0       75.68       75.60       75.50       75.38       75.26    
        75.14       75.01       74.87       74.74       74.61       74.48       74.35       74.22       74.09       73.96    
        73.83       73.69       73.55       73.41       73.27       73.14       73.00       72.87       72.74       72.62    
        72.53     -1000.0     -1000.0     -1000.0     -1000.0     -1000.0       70.45       70.32       70.14       70.00    
  41  -1000.0     -1000.0     -1000.0     -1000.0     -1000.0     -1000.0     -1000.0       77.53       77.52       77.50    
      -1000.0     -1000.0     -1000.0     -1000.0     -1000.0       75.54       75.49       75.42       75.32       75.21    
        75.09       74.97       74.84       74.71       74.59       74.46       74.34       74.22       74.10       73.97    
        73.85       73.72       73.58       73.44       73.31       73.18       73.05       72.93       72.83       72.74    
        72.69     -1000.0     -1000.0     -1000.0     -1000.0     -1000.0     -1000.0     -1000.0       70.07       70.00    
  42  -1000.0     -1000.0     -1000.0     -1000.0     -1000.0     -1000.0     -1000.0     -1000.0     -1000.0     -1000.0    
      -1000.0     -1000.0     -1000.0     -1000.0     -1000.0       75.46       75.42       75.35       75.27       75.17    
        75.05       74.93       74.81       74.68       74.56       74.45       74.33       74.22       74.11       73.99    
        73.87       73.74       73.61       73.47       73.34       73.21       73.09       72.99       72.89       72.83    
        72.79     -1000.0     -1000.0     -1000.0     -1000.0     -1000.0     -1000.0     -1000.0     -1000.0     -1000.0    
  43  -1000.0     -1000.0     -1000.0     -1000.0     -1000.0     -1000.0     -1000.0     -1000.0     -1000.0     -1000.0    
      -1000.0     -1000.0     -1000.0     -1000.0     -1000.0       75.41       75.36       75.30       75.23       75.13    
        75.02       74.90       74.77       74.65       74.54       74.43       74.32       74.22       74.12       74.01    
        73.90       73.78       73.63       73.49       73.36       73.23       73.12       73.02       72.94       72.88    
        72.85     -1000.0     -1000.0     -1000.0     -1000.0     -1000.0     -1000.0     -1000.0     -1000.0     -1000.0    
  44  -1000.0     -1000.0     -1000.0     -1000.0     -1000.0     -1000.0     -1000.0     -1000.0     -1000.0     -1000.0    
      -1000.0     -1000.0     -1000.0     -1000.0     -1000.0     -1000.0       75.32       75.28       75.21       75.12    
        75.01       74.88       74.73       74.62       74.50       74.40       74.31       74.22       74.13       74.04    
        73.94       73.83       73.66       73.51       73.37       73.25       73.14       73.04       72.96       72.91    
        72.88     -1000.0     -1000.0     -1000.0     -1000.0     -1000.0     -1000.0     -1000.0     -1000.0     -1000.0    
  45  -1000.0     -1000.0     -1000.0     -1000.0     -1000.0     -1000.0     -1000.0     -1000.0     -1000.0     -1000.0    
      -1000.0     -1000.0     -1000.0     -1000.0     -1000.0     -1000.0     -1000.0     -1000.0     -1000.0     -1000.0    
      -1000.0     -1000.0       74.65       74.58       74.46       74.37       74.29       74.21       74.14       74.07    
        74.00       73.95     -1000.0     -1000.0     -1000.0     -1000.0     -1000.0     -1000.0     -1000.0     -1000.0    
      -1000.0     -1000.0     -1000.0     -1000.0     -1000.0     -1000.0     -1000.0     -1000.0     -1000.0     -1000.0    
  46  -1000.0     -1000.0     -1000.0     -1000.0     -1000.0     -1000.0     -1000.0     -1000.0     -1000.0     -1000.0    
      -1000.0     -1000.0     -1000.0     -1000.0     -1000.0     -1000.0     -1000.0     -1000.0     -1000.0     -1000.0    
      -1000.0     -1000.0     -1000.0     -1000.0       74.39       74.32       74.26       74.20       74.15       74.10    
        74.05       74.02     -1000.0     -1000.0     -1000.0     -1000.0     -1000.0     -1000.0     -1000.0     -1000.0    
      -1000.0     -1000.0     -1000.0     -1000.0     -1000.0     -1000.0     -1000.0     -1000.0     -1000.0     -1000.0    
  47  -1000.0     -1000.0     -1000.0     -1000.0     -1000.0     -1000.0     -1000.0     -1000.0     -1000.0     -1000.0    
      -1000.0     -1000.0     -1000.0     -1000.0     -1000.0     -1000.0     -1000.0     -1000.0     -1000.0     -1000.0    
      -1000.0     -1000.0     -1000.0     -1000.0     -1000.0       74.26       74.23       74.20       74.16       74.12    
        74.08       74.05     -1000.0     -1000.0     -1000.0     -1000.0     -1000.0     -1000.0     -1000.0     -1000.0    
      -1000.0     -1000.0     -1000.0     -1000.0     -1000.0     -1000.0     -1000.0     -1000.0     -1000.0     -1000.0    
  48  -1000.0     -1000.0     -1000.0     -1000.0     -1000.0     -1000.0     -1000.0     -1000.0     -1000.0     -1000.0    
      -1000.0     -1000.0     -1000.0     -1000.0     -1000.0     -1000.0     -1000.0     -1000.0     -1000.0     -1000.0    
      -1000.0     -1000.0     -1000.0     -1000.0     -1000.0       74.23       74.22       74.19       74.16       74.13    
        74.11     -1000.0     -1000.0     -1000.0     -1000.0     -1000.0     -1000.0     -1000.0     -1000.0     -1000.0    
      -1000.0     -1000.0     -1000.0     -1000.0     -1000.0     -1000.0     -1000.0     -1000.0     -1000.0     -1000.0    
  49  -1000.0     -1000.0     -1000.0     -1000.0     -1000.0     -1000.0     -1000.0     -1000.0     -1000.0     -1000.0    
      -1000.0     -1000.0     -1000.0     -1000.0     -1000.0     -1000.0     -1000.0     -1000.0     -1000.0     -1000.0    
      -1000.0     -1000.0     -1000.0     -1000.0     -1000.0       74.22       74.21       74.19       74.17       74.15    
      -1000.0     -1000.0     -1000.0     -1000.0     -1000.0     -1000.0     -1000.0     -1000.0     -1000.0     -1000.0    
      -1000.0     -1000.0     -1000.0     -1000.0     -1000.0     -1000.0     -1000.0     -1000.0     -1000.0     -1000.0    
  50  -1000.0     -1000.0     -1000.0     -1000.0     -1000.0     -1000.0     -1000.0     -1000.0     -1000.0     -1000.0    
      -1000.0     -1000.0     -1000.0     -1000.0     -1000.0     -1000.0     -1000.0     -1000.0     -1000.0     -1000.0    
      -1000.0     -1000.0     -1000.0     -1000.0     -1000.0     -1000.0     -1000.0     -1000.0     -1000.0     -1000.0    
      -1000.0     -1000.0     -1000.0     -1000.0     -1000.0     -1000.0     -1000.0     -1000.0     -1000.0     -1000.0    
      -1000.0     -1000.0     -1000.0     -1000.0     -1000.0     -1000.0     -1000.0     -1000.0     -1000.0     -1000.0    

 HEAD WILL BE SAVED ON UNIT   51 AT END OF TIME STEP    1, STRESS PERIOD    1
1
  VOLUMETRIC BUDGET FOR ENTIRE MODEL AT END OF TIME STEP    1, STRESS PERIOD   1
  ------------------------------------------------------------------------------

     CUMULATIVE VOLUMES      L**3       RATES FOR THIS TIME STEP      L**3/T
     ------------------                 ------------------------

           IN:                                      IN:
           ---                                      ---
             STORAGE =           0.0000               STORAGE =           0.0000
       CONSTANT HEAD =           0.0000         CONSTANT HEAD =           0.0000
            RECHARGE =       14120.0000              RECHARGE =       14120.0000

            TOTAL IN =       14120.0000              TOTAL IN =       14120.0000

          OUT:                                     OUT:
          ----                                     ----
             STORAGE =           0.0000               STORAGE =           0.0000
       CONSTANT HEAD =       14120.0000         CONSTANT HEAD =       14120.0000
            RECHARGE =           0.0000              RECHARGE =           0.0000

           TOTAL OUT =       14120.0000             TOTAL OUT =       14120.0000

            IN - OUT =           0.0000              IN - OUT =           0.0000

 PERCENT DISCREPANCY =           0.00     PERCENT DISCREPANCY =           0.00






         TIME SUMMARY AT END OF TIME STEP    1 IN STRESS PERIOD    1
                    SECONDS     MINUTES      HOURS       DAYS        YEARS
                    -----------------------------------------------------------
   TIME STEP LENGTH  86400.      1440.0      24.000      1.0000     2.73785E-03
 STRESS PERIOD TIME  86400.      1440.0      24.000      1.0000     2.73785E-03
         TOTAL TIME  86400.      1440.0      24.000      1.0000     2.73785E-03
1

 Run end date and time (yyyy/mm/dd hh:mm:ss): 2023/05/09 16:22:49
 Elapsed run time:  0.033 Seconds

