                                  MODFLOW-NWT-SWR1 
      U.S. GEOLOGICAL SURVEY MODULAR FINITE-DIFFERENCE GROUNDWATER-FLOW MODEL
                            VERSION 1.2.0 03/01/2020
                    BASED ON MODFLOW-2005 VERSION 1.12.00 02/03/2017

 LIST FILE: nwt40_gmres.lst
                         UNIT   30

 OPENING tuc1940q1.dis
 FILE TYPE:DIS   UNIT   10   STATUS:OLD    
 FORMAT:FORMATTED              ACCESS:SEQUENTIAL          

 OPENING tuc1940z.bas
 FILE TYPE:BAS6   UNIT   11   STATUS:OLD    
 FORMAT:FORMATTED              ACCESS:SEQUENTIAL          

 OPENING tuc1940t.upw
 FILE TYPE:UPW   UNIT   12   STATUS:OLD    
 FORMAT:FORMATTED              ACCESS:SEQUENTIAL          

 OPENING tuc2010q10.wel
 FILE TYPE:WEL   UNIT   13   STATUS:OLD    
 FORMAT:FORMATTED              ACCESS:SEQUENTIAL          

 OPENING TUC1940d.EVT
 FILE TYPE:EVT   UNIT   14   STATUS:OLD    
 FORMAT:FORMATTED              ACCESS:SEQUENTIAL          

 OPENING tuc2010a3.chd
 FILE TYPE:CHD   UNIT   15   STATUS:OLD    
 FORMAT:FORMATTED              ACCESS:SEQUENTIAL          

 OPENING tuc2010n1.rch
 FILE TYPE:RCH   UNIT   16   STATUS:OLD    
 FORMAT:FORMATTED              ACCESS:SEQUENTIAL          

 OPENING tuc4010a1.oc
 FILE TYPE:OC   UNIT   22   STATUS:OLD    
 FORMAT:FORMATTED              ACCESS:SEQUENTIAL          

 OPENING .\graphs.out
 FILE TYPE:DATA(BINARY)   UNIT   33   STATUS:UNKNOWN
 FORMAT:BINARY                 ACCESS:SEQUENTIAL          

 OPENING .\hobs.dat
 FILE TYPE:DATA   UNIT   34   STATUS:UNKNOWN
 FORMAT:FORMATTED              ACCESS:SEQUENTIAL          

 OPENING .\lost_pumpage.dat
 FILE TYPE:DATA   UNIT   35   STATUS:UNKNOWN
 FORMAT:FORMATTED              ACCESS:SEQUENTIAL          

 OPENING cbc.bgt
 FILE TYPE:DATA(BINARY)   UNIT   39   STATUS:REPLACE
 FORMAT:BINARY                 ACCESS:SEQUENTIAL          

 OPENING 4010.hds
 FILE TYPE:DATA   UNIT   31   STATUS:UNKNOWN
 FORMAT:FORMATTED              ACCESS:SEQUENTIAL          

 BAS -- BASIC PACKAGE, VERSION 1.2.0, 3/01/2020 INPUT READ FROM UNIT   11
 
 MODFLOW was compiled using mixed precision
 Precision of REAL variables:           6
 Precision of DOUBLE PRECISION variables:          15

 DISCRETIZATION INPUT DATA READ FROM UNIT   10
 # DIS package for  MODFLOW-NWT, generated by Flopy.
    3 LAYERS       130 ROWS       100 COLUMNS
   71 STRESS PERIOD(S) IN SIMULATION
 MODEL TIME UNIT IS DAYS
 MODEL LENGTH UNIT IS FEET
  Confining bed flag for each layer:
   0   0   0

                     DELR =   2640.00    

                     DELC =   2640.00    



           TOP ELEVATION OF LAYER 1
 READING ON UNIT   10 WITH FORMAT: (FREE)              



             MODEL LAYER BOTTOM EL. FOR LAYER   1
 READING ON UNIT   10 WITH FORMAT: (FREE)              



             MODEL LAYER BOTTOM EL. FOR LAYER   2
 READING ON UNIT   10 WITH FORMAT: (FREE)              



             MODEL LAYER BOTTOM EL. FOR LAYER   3
 READING ON UNIT   10 WITH FORMAT: (FREE)              


 STRESS PERIOD     LENGTH       TIME STEPS     MULTIPLIER FOR DELT    SS FLAG
 ----------------------------------------------------------------------------
        1         366.0000          1                    1.000         SS
        2         365.0000         12                    1.000         TR
        3         365.0000         12                    1.000         TR
        4         365.0000         12                    1.000         TR
        5         366.0000         12                    1.000         TR
        6         365.0000         12                    1.000         TR
        7         365.0000         12                    1.000         TR
        8         365.0000         12                    1.000         TR
        9         366.0000         12                    1.000         TR
       10         365.0000         12                    1.000         TR
       11         365.0000         12                    1.000         TR
       12         365.0000         12                    1.000         TR
       13         366.0000         12                    1.000         TR
       14         365.0000         12                    1.000         TR
       15         365.0000         12                    1.000         TR
       16         365.0000         12                    1.000         TR
       17         366.0000         12                    1.000         TR
       18         365.0000         12                    1.000         TR
       19         365.0000         12                    1.000         TR
       20         365.0000         12                    1.000         TR
       21         366.0000         12                    1.000         TR
       22         365.0000         12                    1.000         TR
       23         365.0000         12                    1.000         TR
       24         365.0000         12                    1.000         TR
       25         366.0000         12                    1.000         TR
       26         365.0000         12                    1.000         TR
       27         365.0000         12                    1.000         TR
       28         365.0000         12                    1.000         TR
       29         366.0000         12                    1.000         TR
       30         365.0000         12                    1.000         TR
       31         365.0000         12                    1.000         TR
       32         365.0000         12                    1.000         TR
       33         366.0000         12                    1.000         TR
       34         365.0000         12                    1.000         TR
       35         365.0000         12                    1.000         TR
       36         365.0000         12                    1.000         TR
       37         366.0000         12                    1.000         TR
       38         365.0000         12                    1.000         TR
       39         365.0000         12                    1.000         TR
       40         365.0000         12                    1.000         TR
       41         366.0000         12                    1.000         TR
       42         365.0000         12                    1.000         TR
       43         365.0000         12                    1.000         TR
       44         365.0000         12                    1.000         TR
       45         366.0000         12                    1.000         TR
       46         365.0000         12                    1.000         TR
       47         365.0000         12                    1.000         TR
       48         365.0000         12                    1.000         TR
       49         366.0000         12                    1.000         TR
       50         365.0000         12                    1.000         TR
       51         365.0000         12                    1.000         TR
       52         365.0000         12                    1.000         TR
       53         366.0000         12                    1.000         TR
       54         365.0000         12                    1.000         TR
       55         365.0000         12                    1.000         TR
       56         365.0000         12                    1.000         TR
       57         366.0000         12                    1.000         TR
       58         365.0000         12                    1.000         TR
       59         365.0000         12                    1.000         TR
       60         365.0000         12                    1.000         TR
       61         366.0000         12                    1.000         TR
       62         365.0000         12                    1.000         TR
       63         365.0000         12                    1.000         TR
       64         365.0000         12                    1.000         TR
       65         366.0000         12                    1.000         TR
       66         365.0000         12                    1.000         TR
       67         365.0000         12                    1.000         TR
       68         365.0000         12                    1.000         TR
       69         366.0000         12                    1.000         TR
       70         365.0000         12                    1.000         TR
       71         365.0000         12                    1.000         TR

 COMBINED STEADY-STATE AND TRANSIENT SIMULATION



 
 # BAS6 package for  MODFLOW-NWT, generated by Flopy.                            
 THE FREE FORMAT OPTION HAS BEEN SELECTED



                     BOUNDARY ARRAY FOR LAYER   1
 READING ON UNIT   11 WITH FORMAT: (FREE)              



                     BOUNDARY ARRAY FOR LAYER   2
 READING ON UNIT   11 WITH FORMAT: (FREE)              



                     BOUNDARY ARRAY FOR LAYER   3
 READING ON UNIT   11 WITH FORMAT: (FREE)              

 AQUIFER HEAD WILL BE SET TO   0.0000     AT ALL NO-FLOW NODES (IBOUND=0).



                       INITIAL HEAD FOR LAYER   1
 READING ON UNIT   11 WITH FORMAT: (FREE)              



                       INITIAL HEAD FOR LAYER   2
 READING ON UNIT   11 WITH FORMAT: (FREE)              



                       INITIAL HEAD FOR LAYER   3
 READING ON UNIT   11 WITH FORMAT: (FREE)              
 # OC package for  MODFLOW-NWT, generated by Flopy.

 OUTPUT CONTROL IS SPECIFIED ONLY AT TIME STEPS FOR WHICH OUTPUT IS DESIRED
 HEADS WILL BE SAVED WITH FORMAT: (20f7.1)            
 SAVED HEADS WILL BE LABELED
 COMPACT CELL-BY-CELL BUDGET FILES WILL BE WRITTEN
 AUXILIARY DATA WILL BE SAVED IN CELL-BY-CELL BUDGET FILES
 HEAD PRINT FORMAT CODE IS   0    DRAWDOWN PRINT FORMAT CODE IS   0
 HEADS WILL BE SAVED ON UNIT   31    DRAWDOWNS WILL BE SAVED ON UNIT    0

 UPW1 -- UPSTREAM WEIGHTING FLOW PACKAGE, VERSION 1.2.0, 3/01/2020
         INPUT READ FROM UNIT 12

 # UPW package for  MODFLOW-NWT, generated by Flopy.
 CELL-BY-CELL FLOWS WILL BE SAVED ON UNIT   39
 No named parameters
