                                  MODFLOW-2005     
      U.S. GEOLOGICAL SURVEY MODULAR FINITE-DIFFERENCE GROUND-WATER FLOW MODEL
                            VERSION 1.12.00 2/3/2017

 LIST FILE: stream.list
                         UNIT    2

 OPENING stream.dis
 FILE TYPE:DIS   UNIT   11   STATUS:OLD    
 FORMAT:FORMATTED              ACCESS:SEQUENTIAL          

 OPENING stream.bas
 FILE TYPE:BAS6   UNIT   13   STATUS:OLD    
 FORMAT:FORMATTED              ACCESS:SEQUENTIAL          

 OPENING stream.lpf
 FILE TYPE:LPF   UNIT   15   STATUS:OLD    
 FORMAT:FORMATTED              ACCESS:SEQUENTIAL          

 OPENING stream.oc
 FILE TYPE:OC   UNIT   14   STATUS:OLD    
 FORMAT:FORMATTED              ACCESS:SEQUENTIAL          

 OPENING stream.pcg
 FILE TYPE:PCG   UNIT   27   STATUS:OLD    
 FORMAT:FORMATTED              ACCESS:SEQUENTIAL          

 OPENING stream.rch
 FILE TYPE:RCH   UNIT   19   STATUS:OLD    
 FORMAT:FORMATTED              ACCESS:SEQUENTIAL          

 OPENING stream.str
 FILE TYPE:STR   UNIT  118   STATUS:OLD    
 FORMAT:FORMATTED              ACCESS:SEQUENTIAL          

 OPENING stream.cbc
 FILE TYPE:DATA(BINARY)   UNIT   53   STATUS:REPLACE
 FORMAT:BINARY                 ACCESS:SEQUENTIAL          

 OPENING stream.hds
 FILE TYPE:DATA(BINARY)   UNIT   51   STATUS:REPLACE
 FORMAT:BINARY                 ACCESS:SEQUENTIAL          

 BAS -- BASIC PACKAGE, VERSION 7, 5/2/2005 INPUT READ FROM UNIT   13
 
 MODFLOW was compiled using mixed precision
 Precision of REAL variables:           6
 Precision of DOUBLE PRECISION variables:          15

 DISCRETIZATION INPUT DATA READ FROM UNIT   11
 # DIS package for  MODFLOW-2005, generated by Flopy.
    2 LAYERS        50 ROWS        50 COLUMNS
    1 STRESS PERIOD(S) IN SIMULATION
 MODEL TIME UNIT IS DAYS
 MODEL LENGTH UNIT IS METERS
  Confining bed flag for each layer:
   0   0

                     DELR =   1000.00    

                     DELC =   1000.00    



           TOP ELEVATION OF LAYER 1
 READING ON UNIT   11 WITH FORMAT: (50E15.6)           



             MODEL LAYER BOTTOM EL. FOR LAYER   1
 READING ON UNIT   11 WITH FORMAT: (50E15.6)           



             MODEL LAYER BOTTOM EL. FOR LAYER   2
 READING ON UNIT   11 WITH FORMAT: (50E15.6)           


 STRESS PERIOD     LENGTH       TIME STEPS     MULTIPLIER FOR DELT    SS FLAG
 ----------------------------------------------------------------------------
        1         1.000000          1                    1.000         SS

 STEADY-STATE SIMULATION



 
 # BAS6 package for  MODFLOW-2005, generated by Flopy.                           
 THE FREE FORMAT OPTION HAS BEEN SELECTED



                     BOUNDARY ARRAY FOR LAYER   1
 READING ON UNIT   13 WITH FORMAT: (50I10)             



                     BOUNDARY ARRAY FOR LAYER   2
 READING ON UNIT   13 WITH FORMAT: (50I10)             

 AQUIFER HEAD WILL BE SET TO  -999.99     AT ALL NO-FLOW NODES (IBOUND=0).



                       INITIAL HEAD FOR LAYER   1
 READING ON UNIT   13 WITH FORMAT: (50E15.6)           



                       INITIAL HEAD FOR LAYER   2
 READING ON UNIT   13 WITH FORMAT: (50E15.6)           
 # OC package for  MODFLOW-2005, generated by Flopy.

 OUTPUT CONTROL IS SPECIFIED ONLY AT TIME STEPS FOR WHICH OUTPUT IS DESIRED
 COMPACT CELL-BY-CELL BUDGET FILES WILL BE WRITTEN
 AUXILIARY DATA WILL BE SAVED IN CELL-BY-CELL BUDGET FILES
 HEAD PRINT FORMAT CODE IS   0    DRAWDOWN PRINT FORMAT CODE IS   0
 HEADS WILL BE SAVED ON UNIT   51    DRAWDOWNS WILL BE SAVED ON UNIT    0

 LPF -- LAYER-PROPERTY FLOW PACKAGE, VERSION 7, 5/2/2005
         INPUT READ FROM UNIT   15
 # LPF package for  MODFLOW-2005, generated by Flopy.
 CELL-BY-CELL FLOWS WILL BE SAVED ON UNIT   53
 HEAD AT CELLS THAT CONVERT TO DRY= -1.00000E+30
 No named parameters

   LAYER FLAGS:
 LAYER       LAYTYP        LAYAVG         CHANI        LAYVKA        LAYWET
 ---------------------------------------------------------------------------
    1             1             0     0.000E+00             0             0
    2             1             0     0.000E+00             0             0

   INTERPRETATION OF LAYER FLAGS:
                        INTERBLOCK     HORIZONTAL    DATA IN
         LAYER TYPE   TRANSMISSIVITY   ANISOTROPY   ARRAY VKA   WETTABILITY
 LAYER      (LAYTYP)      (LAYAVG)       (CHANI)      (LAYVKA)      (LAYWET)
 ---------------------------------------------------------------------------
    1   CONVERTIBLE      HARMONIC      VARIABLE    VERTICAL K  NON-WETTABLE
    2   CONVERTIBLE      HARMONIC      VARIABLE    VERTICAL K  NON-WETTABLE

 WETTING CAPABILITY IS NOT ACTIVE IN ANY LAYER

    HYD. COND. ALONG ROWS =   21.5000     FOR LAYER   1

   HORIZ. ANI. (COL./ROW) =   1.00000     FOR LAYER   1

      VERTICAL HYD. COND. =   10.0000     FOR LAYER   1

    HYD. COND. ALONG ROWS =   21.5000     FOR LAYER   2

   HORIZ. ANI. (COL./ROW) =   1.00000     FOR LAYER   2

      VERTICAL HYD. COND. =   10.0000     FOR LAYER   2

 RCH -- RECHARGE PACKAGE, VERSION 7, 5/2/2005 INPUT READ FROM UNIT   19
 # RCH package for  MODFLOW-2005, generated by Flopy.
 No named parameters
 OPTION 3 -- RECHARGE TO HIGHEST ACTIVE NODE IN EACH VERTICAL COLUMN


     0 Recharge parameters

 STR -- STREAM PACKAGE, VERSION 7, 5/2/2005 INPUT READ FROM UNIT  118
 # STR package for  MODFLOW-2005, generated by Flopy.
 No named parameters
 MAXIMUM OF     44 ACTIVE STREAM NODES AT ONE TIME
 NUMBER OF STREAM SEGMENTS IS      1
 NUMBER OF STREAM TRIBUTARIES IS      0
 CELL BUDGETS WILL BE SAVED ON UNITS   53 AND   53


     0 Stream parameters

 PCG -- CONJUGATE-GRADIENT SOLUTION PACKAGE, VERSION 7, 5/2/2005
 # PCG package for  MODFLOW-2005, generated by Flopy.
 MAXIMUM OF     50 CALLS OF SOLUTION ROUTINE
 MAXIMUM OF     30 INTERNAL ITERATIONS PER CALL TO SOLUTION ROUTINE
 MATRIX PRECONDITIONING TYPE :    1



                                    SOLUTION BY THE CONJUGATE-GRADIENT METHOD
                                   -------------------------------------------
                    MAXIMUM NUMBER OF CALLS TO PCG ROUTINE =       50
                        MAXIMUM ITERATIONS PER CALL TO PCG =       30
                               MATRIX PRECONDITIONING TYPE =        1
        RELAXATION FACTOR (ONLY USED WITH PRECOND. TYPE 1) =    0.10000E+01
 PARAMETER OF POLYNOMIAL PRECOND. = 2 (2) OR IS CALCULATED :        0
                         HEAD CHANGE CRITERION FOR CLOSURE =    0.10000E-04
                     RESIDUAL CHANGE CRITERION FOR CLOSURE =    0.10000E-04
            PCG HEAD AND RESIDUAL CHANGE PRINTOUT INTERVAL =      999
     PRINTING FROM SOLVER IS LIMITED(1) OR SUPPRESSED (>1) =        3
                            STEADY-STATE DAMPING PARAMETER =    0.10000E+01
                               TRANSIENT DAMPING PARAMETER =    0.10000E+01
1
                            STRESS PERIOD NO.    1, LENGTH =   1.000000    
                            -----------------------------------------------

                              NUMBER OF TIME STEPS =     1

                               MULTIPLIER FOR DELT =     1.000

                            INITIAL TIME STEP SIZE =   1.000000    



                           RECHARGE
 READING ON UNIT   19 WITH FORMAT: (50E15.6)           

     44 STREAM REACHES
 
 SOLVING FOR HEAD 

 OUTPUT CONTROL FOR STRESS PERIOD    1   TIME STEP    1
    PRINT HEAD FOR ALL LAYERS
    PRINT BUDGET
    SAVE HEAD FOR ALL LAYERS
    SAVE BUDGET
 UBDSV2 SAVING "   CONSTANT HEAD" ON UNIT  53 AT TIME STEP  1, STRESS PERIOD   1
 UBDSV1 SAVING "FLOW RIGHT FACE " ON UNIT  53 AT TIME STEP  1, STRESS PERIOD   1
 UBDSV1 SAVING "FLOW FRONT FACE " ON UNIT  53 AT TIME STEP  1, STRESS PERIOD   1
 UBDSV1 SAVING "FLOW LOWER FACE " ON UNIT  53 AT TIME STEP  1, STRESS PERIOD   1
 UBDSV4 SAVING "  STREAM LEAKAGE" ON UNIT  53 AT TIME STEP  1, STRESS PERIOD   1
 UBDSV4 SAVING "STREAM FLOW OUT " ON UNIT  53 AT TIME STEP  1, STRESS PERIOD   1
1
              HEAD IN LAYER   1 AT END OF TIME STEP   1 IN STRESS PERIOD    1
  ---------------------------------------------------------------------------

            1           2           3           4           5           6           7           8           9          10
           11          12          13          14          15          16          17          18          19          20
           21          22          23          24          25          26          27          28          29          30
           31          32          33          34          35          36          37          38          39          40
           41          42          43          44          45          46          47          48          49          50
 ........................................................................................................................
   1  -1000.0     -1000.0     -1000.0     -1000.0     -1000.0     -1000.0     -1000.0     -1000.0     -1000.0     -1000.0    
      -1000.0     -1000.0     -1000.0     -1000.0     -1000.0     -1000.0     -1000.0     -1000.0     -1000.0     -1000.0    
      -1000.0     -1000.0     -1000.0     -1000.0     -1000.0     -1000.0     -1000.0     -1000.0     -1000.0     -1000.0    
      -1000.0     -1000.0     -1000.0     -1000.0     -1000.0     -1000.0     -1000.0     -1000.0     -1000.0     -1000.0    
      -1000.0     -1000.0     -1000.0     -1000.0     -1000.0     -1000.0     -1000.0     -1000.0     -1000.0     -1000.0    
   2  -1000.0     -1000.0     -1000.0     -1000.0     -1000.0     -1000.0     -1000.0     -1000.0     -1000.0     -1000.0    
      -1000.0     -1000.0     -1000.0     -1000.0     -1000.0     -1000.0     -1000.0     -1000.0     -1000.0     -1000.0    
      -1000.0     -1000.0     -1000.0       76.82       76.76       76.66       76.53       76.40       76.26       76.12    
        75.99       75.86       75.76       75.69     -1000.0     -1000.0     -1000.0     -1000.0     -1000.0     -1000.0    
      -1000.0     -1000.0     -1000.0     -1000.0     -1000.0     -1000.0     -1000.0     -1000.0     -1000.0     -1000.0    
   3  -1000.0     -1000.0     -1000.0     -1000.0     -1000.0     -1000.0     -1000.0     -1000.0     -1000.0     -1000.0    
      -1000.0     -1000.0     -1000.0     -1000.0     -1000.0     -1000.0     -1000.0     -1000.0     -1000.0     -1000.0    
      -1000.0     -1000.0       76.98       76.89       76.79       76.68       76.54       76.41       76.26       76.12    
        75.98       75.84       75.72       75.62       75.52     -1000.0     -1000.0     -1000.0     -1000.0     -1000.0    
      -1000.0     -1000.0     -1000.0     -1000.0     -1000.0     -1000.0     -1000.0     -1000.0     -1000.0     -1000.0    
   4  -1000.0     -1000.0     -1000.0     -1000.0     -1000.0     -1000.0     -1000.0     -1000.0     -1000.0     -1000.0    
      -1000.0     -1000.0     -1000.0     -1000.0     -1000.0     -1000.0     -1000.0     -1000.0     -1000.0     -1000.0    
      -1000.0     -1000.0       77.07       76.97       76.84       76.71       76.56       76.41       76.26       76.11    
        75.96       75.81       75.67       75.53       75.43     -1000.0     -1000.0     -1000.0     -1000.0     -1000.0    
      -1000.0     -1000.0     -1000.0     -1000.0     -1000.0     -1000.0     -1000.0     -1000.0     -1000.0     -1000.0    
   5  -1000.0     -1000.0     -1000.0     -1000.0     -1000.0     -1000.0     -1000.0     -1000.0     -1000.0     -1000.0    
      -1000.0     -1000.0     -1000.0     -1000.0     -1000.0     -1000.0     -1000.0       78.16       78.08       77.94    
        77.75       77.53       77.25       77.07       76.91       76.75       76.59       76.43       76.26       76.10    
        75.93       75.77       75.60       75.43       75.23       74.92       74.65       74.41       74.18       73.96    
        73.77       73.60       73.46       73.37     -1000.0     -1000.0     -1000.0     -1000.0     -1000.0     -1000.0    
   6  -1000.0     -1000.0     -1000.0     -1000.0     -1000.0     -1000.0     -1000.0     -1000.0     -1000.0     -1000.0    
      -1000.0     -1000.0     -1000.0     -1000.0     -1000.0     -1000.0     -1000.0       78.25       78.14       77.98    
        77.79       77.58       77.35       77.15       76.97       76.79       76.62       76.44       76.27       76.09    
        75.91       75.73       75.55       75.35       75.13       74.88       74.63       74.39       74.16       73.95    
        73.75       73.57       73.41       73.28       73.16     -1000.0     -1000.0     -1000.0     -1000.0     -1000.0    
   7  -1000.0     -1000.0     -1000.0     -1000.0     -1000.0     -1000.0     -1000.0     -1000.0     -1000.0     -1000.0    
      -1000.0     -1000.0     -1000.0       79.23       79.13       78.96       78.73       78.44       78.24       78.05    
        77.85       77.64       77.42       77.22       77.02       76.83       76.64       76.46       76.27       76.08    
        75.89       75.70       75.50       75.29       75.07       74.83       74.59       74.36       74.13       73.91    
        73.70       73.51       73.33       73.17       73.05     -1000.0     -1000.0     -1000.0     -1000.0     -1000.0    
   8  -1000.0     -1000.0     -1000.0     -1000.0     -1000.0     -1000.0     -1000.0     -1000.0     -1000.0     -1000.0    
      -1000.0     -1000.0       79.41       79.31       79.18       79.00       78.79       78.56       78.34       78.13    
        77.91       77.70       77.48       77.27       77.07       76.87       76.67       76.47       76.27       76.07    
        75.87       75.67       75.46       75.25       75.02       74.79       74.56       74.32       74.09       73.87    
        73.65       73.44       73.23       73.03       72.81       72.50       72.28       72.16     -1000.0     -1000.0    
   9  -1000.0     -1000.0     -1000.0     -1000.0     -1000.0     -1000.0     -1000.0     -1000.0     -1000.0     -1000.0    
      -1000.0     -1000.0       79.48       79.40       79.27       79.08       78.87       78.65       78.43       78.20    
        77.98       77.76       77.54       77.32       77.11       76.90       76.69       76.48       76.27       76.07    
        75.86       75.65       75.43       75.21       74.98       74.75       74.52       74.28       74.05       73.81    
        73.58       73.36       73.13       72.90       72.66       72.40       72.19       72.05     -1000.0     -1000.0    
  10  -1000.0     -1000.0     -1000.0     -1000.0     -1000.0     -1000.0     -1000.0     -1000.0     -1000.0     -1000.0    
      -1000.0     -1000.0       79.60       79.52       79.38       79.18       78.97       78.74       78.51       78.28    
        78.05       77.82       77.60       77.37       77.15       76.93       76.71       76.49       76.28       76.06    
        75.84       75.63       75.40       75.18       74.95       74.71       74.48       74.24       74.00       73.76    
        73.52       73.28       73.03       72.78       72.53       72.26       72.01       71.78       71.54     -1000.0    
  11  -1000.0     -1000.0     -1000.0     -1000.0     -1000.0     -1000.0     -1000.0     -1000.0     -1000.0     -1000.0    
      -1000.0     -1000.0       79.78       79.68       79.52       79.30       79.07       78.84       78.60       78.36    
        78.12       77.88       77.65       77.41       77.18       76.96       76.73       76.50       76.28       76.06    
        75.83       75.61       75.38       75.15       74.91       74.68       74.44       74.19       73.95       73.70    
        73.45       73.20       72.94       72.67       72.40       72.11       71.82       71.54       71.29     -1000.0    
  12  -1000.0     -1000.0     -1000.0     -1000.0     -1000.0     -1000.0     -1000.0     -1000.0     -1000.0     -1000.0    
      -1000.0     -1000.0       80.04       79.89       79.68       79.43       79.18       78.93       78.68       78.43    
        78.18       77.94       77.70       77.45       77.22       76.98       76.75       76.51       76.28       76.05    
        75.82       75.59       75.36       75.12       74.88       74.64       74.40       74.15       73.90       73.65    
        73.39       73.12       72.85       72.57       72.27       71.96       71.63       71.26       70.79       70.00    
  13  -1000.0     -1000.0     -1000.0     -1000.0     -1000.0       82.22       82.13       81.98       81.79       81.55    
        81.25       80.89       80.42       80.12       79.85       79.57       79.30       79.03       78.77       78.51    
        78.25       77.99       77.74       77.49       77.24       77.00       76.76       76.52       76.28       76.05    
        75.81       75.57       75.34       75.10       74.86       74.61       74.36       74.11       73.85       73.59    
        73.33       73.05       72.77       72.47       72.16       71.83       71.47       71.07       70.59       70.00    
  14  -1000.0     -1000.0     -1000.0       82.47       82.41       82.29       82.16       82.01       81.81       81.58    
        81.30       80.98       80.62       80.30       80.00       79.70       79.41       79.12       78.85       78.57    
        78.31       78.04       77.78       77.52       77.27       77.02       76.77       76.53       76.28       76.04    
        75.80       75.56       75.32       75.07       74.83       74.58       74.33       74.07       73.81       73.55    
        73.27       72.99       72.70       72.39       72.07       71.73       71.36       70.95       70.50       70.00    
  15  -1000.0     -1000.0       82.57       82.51       82.44       82.33       82.20       82.04       81.85       81.62    
        81.36       81.07       80.75       80.44       80.13       79.81       79.51       79.21       78.92       78.64    
        78.36       78.09       77.82       77.55       77.29       77.03       76.78       76.53       76.28       76.03    
        75.79       75.54       75.30       75.05       74.81       74.55       74.30       74.04       73.78       73.51    
        73.23       72.94       72.64       72.33       72.00       71.65       71.28       70.88       70.45       70.00    
  16  -1000.0     -1000.0       82.60       82.56       82.48       82.38       82.25       82.09       81.90       81.68    
        81.43       81.16       80.86       80.55       80.24       79.91       79.59       79.29       78.99       78.70    
        78.41       78.13       77.85       77.57       77.31       77.04       76.78       76.53       76.27       76.02    
        75.78       75.53       75.28       75.03       74.78       74.53       74.27       74.01       73.75       73.47    
        73.19       72.90       72.60       72.28       71.95       71.60       71.23       70.84       70.42       70.00    
  17  -1000.0     -1000.0       82.64       82.60       82.54       82.44       82.31       82.15       81.97       81.75    
        81.51       81.24       80.95       80.65       80.33       80.00       79.67       79.36       79.05       78.75    
        78.45       78.16       77.87       77.59       77.32       77.05       76.78       76.52       76.27       76.01    
        75.76       75.51       75.26       75.01       74.76       74.51       74.25       73.99       73.72       73.45    
        73.16       72.87       72.56       72.24       71.91       71.56       71.19       70.81       70.41       70.00    
  18  -1000.0     -1000.0       82.71       82.66       82.59       82.49       82.37       82.21       82.03       81.82    
        81.58       81.32       81.04       80.73       80.41       80.07       79.74       79.42       79.10       78.79    
        78.49       78.19       77.89       77.60       77.32       77.05       76.78       76.51       76.25       76.00    
        75.74       75.49       75.24       74.99       74.74       74.49       74.23       73.97       73.70       73.43    
        73.15       72.85       72.54       72.22       71.89       71.54       71.17       70.79       70.40       70.00    
  19  -1000.0       82.84       82.79       82.73       82.66       82.56       82.43       82.28       82.10       81.90    
        81.66       81.40       81.12       80.81       80.49       80.14       79.80       79.47       79.15       78.83    
        78.51       78.21       77.90       77.61       77.32       77.04       76.76       76.50       76.23       75.98    
        75.72       75.47       75.22       74.98       74.73       74.47       74.22       73.96       73.69       73.42    
        73.14       72.84       72.53       72.21       71.88       71.53       71.16       70.78       70.40       70.00    
  20  -1000.0       82.88       82.84       82.79       82.72       82.63       82.51       82.36       82.18       81.97    
        81.74       81.48       81.19       80.88       80.55       80.20       79.86       79.52       79.19       78.86    
        78.54       78.22       77.91       77.61       77.31       77.02       76.74       76.47       76.21       75.95    
        75.70       75.45       75.20       74.96       74.71       74.46       74.21       73.95       73.69       73.42    
        73.14       72.84       72.54       72.22       71.88       71.53       71.17       70.79       70.40       70.00    
  21  -1000.0       82.92       82.90       82.85       82.79       82.70       82.58       82.44       82.26       82.06    
        81.82       81.56       81.27       80.95       80.62       80.26       79.91       79.56       79.22       78.88    
        78.55       78.22       77.90       77.59       77.29       77.00       76.72       76.44       76.18       75.92    
        75.67       75.43       75.18       74.94       74.70       74.45       74.20       73.95       73.69       73.42    
        73.15       72.86       72.55       72.24       71.90       71.55       71.18       70.80       70.40       70.00    
  22  -1000.0       82.97       82.95       82.91       82.85       82.77       82.66       82.52       82.35       82.15    
        81.91       81.64       81.34       81.02       80.67       80.31       79.95       79.59       79.24       78.90    
        78.56       78.22       77.89       77.57       77.26       76.96       76.68       76.40       76.14       75.89    
        75.64       75.40       75.16       74.92       74.68       74.44       74.20       73.95       73.70       73.44    
        73.17       72.88       72.58       72.27       71.94       71.58       71.21       70.82       70.41       70.00    
  23  -1000.0       83.01       83.00       82.97       82.92       82.85       82.75       82.62       82.45       82.25    
        82.01       81.73       81.42       81.08       80.73       80.35       79.98       79.62       79.26       78.91    
        78.56       78.21       77.87       77.54       77.22       76.91       76.62       76.35       76.09       75.84    
        75.60       75.36       75.13       74.90       74.67       74.44       74.20       73.96       73.72       73.46    
        73.20       72.92       72.63       72.32       71.99       71.63       71.25       70.85       70.43       70.00    
  24  -1000.0       83.05       83.04       83.02       82.98       82.93       82.85       82.73       82.56       82.36    
        82.11       81.83       81.50       81.15       80.77       80.39       80.01       79.64       79.27       78.91    
        78.55       78.19       77.84       77.49       77.15       76.84       76.56       76.29       76.03       75.79    
        75.55       75.33       75.10       74.88       74.66       74.43       74.21       73.98       73.74       73.50    
        73.24       72.97       72.69       72.39       72.06       71.71       71.32       70.90       70.45       70.00    
  25  -1000.0       83.07       83.07       83.05       83.04       83.03       82.97       82.85       82.70       82.49    
        82.24       81.94       81.59       81.20       80.81       80.41       80.03       79.65       79.28       78.91    
        78.54       78.17       77.80       77.42       77.07       76.75       76.47       76.21       75.96       75.73    
        75.50       75.28       75.07       74.86       74.65       74.43       74.22       74.00       73.77       73.54    
        73.30       73.04       72.77       72.48       72.17       71.82       71.42       70.97       70.48       70.00    
  26  -1000.0       83.09       83.08       83.07       83.08       83.15       83.11       83.01       82.85       82.65    
        82.39       82.08       81.69       81.23       80.82       80.42       80.03       79.65       79.28       78.91    
        78.54       78.15       77.76       77.34       76.94       76.62       76.35       76.11       75.87       75.66    
        75.44       75.24       75.04       74.83       74.63       74.43       74.23       74.02       73.81       73.59    
        73.36       73.12       72.87       72.60       72.30       71.97       71.56       71.06       70.51       70.00    
  27  -1000.0     -1000.0       83.06       83.05       83.04       83.02       82.96       82.85       82.69       82.49    
        82.24       81.94       81.59       81.20       80.81       80.41       80.03       79.65       79.28       78.91    
        78.55       78.17       77.80       77.43       77.07       76.76       76.47       76.21       75.97       75.74    
        75.51       75.30       75.08       74.87       74.66       74.44       74.23       74.01       73.78       73.55    
        73.30       73.05       72.78       72.48       72.17       71.82       71.42       70.96       70.48       70.00    
  28  -1000.0     -1000.0       83.03       83.01       82.98       82.92       82.84       82.71       82.55       82.35    
        82.11       81.83       81.50       81.15       80.77       80.39       80.01       79.64       79.27       78.91    
        78.55       78.20       77.84       77.50       77.16       76.85       76.57       76.30       76.05       75.81    
        75.58       75.35       75.13       74.90       74.68       74.46       74.23       74.00       73.76       73.51    
        73.25       72.98       72.70       72.39       72.06       71.71       71.32       70.90       70.45       70.00    
  29  -1000.0     -1000.0       82.99       82.96       82.91       82.83       82.73       82.60       82.43       82.23    
        82.00       81.73       81.42       81.09       80.73       80.35       79.98       79.62       79.26       78.91    
        78.56       78.22       77.88       77.55       77.23       76.93       76.64       76.37       76.12       75.87    
        75.63       75.40       75.17       74.94       74.71       74.47       74.24       74.00       73.75       73.49    
        73.22       72.94       72.64       72.32       71.99       71.63       71.25       70.85       70.43       70.00    
  30  -1000.0     -1000.0       82.96       82.92       82.85       82.74       82.62       82.49       82.32       82.13    
        81.90       81.64       81.35       81.02       80.68       80.31       79.95       79.59       79.24       78.90    
        78.56       78.23       77.90       77.58       77.28       76.98       76.70       76.43       76.18       75.93    
        75.68       75.44       75.21       74.97       74.73       74.49       74.25       74.00       73.74       73.47    
        73.19       72.90       72.60       72.27       71.93       71.58       71.20       70.81       70.41       70.00    
  31  -1000.0     -1000.0       82.94       82.89       82.80       82.64       82.51       82.38       82.22       82.04    
        81.81       81.56       81.27       80.96       80.62       80.26       79.91       79.56       79.22       78.88    
        78.55       78.23       77.92       77.61       77.31       77.02       76.75       76.48       76.22       75.97    
        75.73       75.48       75.24       75.00       74.76       74.52       74.27       74.01       73.74       73.47    
        73.18       72.88       72.57       72.24       71.90       71.54       71.17       70.79       70.40       70.00    
  32  -1000.0     -1000.0     -1000.0     -1000.0     -1000.0       82.46       82.39       82.28       82.13       81.95    
        81.74       81.49       81.21       80.90       80.57       80.21       79.86       79.52       79.18       78.86    
        78.54       78.22       77.92       77.62       77.33       77.05       76.78       76.52       76.26       76.01    
        75.77       75.52       75.28       75.04       74.79       74.54       74.29       74.03       73.75       73.47    
        73.18       72.87       72.55       72.22       71.87       71.51       71.15       70.77       70.39       70.00    
  33  -1000.0     -1000.0     -1000.0     -1000.0     -1000.0       82.34       82.29       82.19       82.05       81.88    
        81.67       81.42       81.14       80.84       80.50       80.15       79.81       79.47       79.14       78.82    
        78.51       78.21       77.91       77.63       77.35       77.07       76.81       76.55       76.30       76.05    
        75.80       75.56       75.32       75.07       74.83       74.58       74.32       74.05       73.78       73.49    
        73.19       72.87       72.54       72.21       71.86       71.50       71.13       70.76       70.38       70.00    
  34  -1000.0     -1000.0     -1000.0     -1000.0     -1000.0       82.25       82.21       82.12       81.99       81.82    
        81.61       81.37       81.08       80.77       80.44       80.08       79.74       79.41       79.09       78.78    
        78.48       78.19       77.90       77.62       77.35       77.09       76.83       76.57       76.33       76.08    
        75.84       75.60       75.35       75.11       74.87       74.61       74.36       74.09       73.81       73.52    
        73.21       72.89       72.55       72.20       71.85       71.48       71.12       70.75       70.37       70.00    
  35  -1000.0     -1000.0     -1000.0     -1000.0     -1000.0       82.19       82.14       82.06       81.94       81.78    
        81.57       81.32       81.03       80.71       80.36       80.00       79.66       79.34       79.03       78.73    
        78.44       78.15       77.88       77.61       77.35       77.09       76.84       76.59       76.35       76.11    
        75.87       75.63       75.39       75.15       74.91       74.66       74.40       74.13       73.85       73.56    
        73.24       72.91       72.56       72.21       71.84       71.48       71.11       70.74       70.37       70.00    
  36  -1000.0     -1000.0     -1000.0     -1000.0     -1000.0       82.14       82.10       82.02       81.91       81.75    
        81.55       81.29       80.99       80.64       80.28       79.91       79.57       79.25       78.95       78.66    
        78.38       78.11       77.85       77.59       77.34       77.09       76.85       76.61       76.37       76.14    
        75.90       75.67       75.43       75.19       74.95       74.71       74.45       74.19       73.91       73.61    
        73.29       72.95       72.59       72.22       71.84       71.47       71.09       70.72       70.36       70.00    
  37  -1000.0     -1000.0     -1000.0     -1000.0     -1000.0       82.11       82.07       82.00       81.89       81.75    
        81.55       81.30       80.96       80.58       80.17       79.78       79.44       79.14       78.86       78.59    
        78.32       78.07       77.81       77.57       77.33       77.09       76.85       76.62       76.39       76.16    
        75.93       75.70       75.47       75.24       75.00       74.77       74.52       74.26       73.99       73.69    
        73.37       73.00       72.62       72.23       71.84       71.45       71.07       70.70       70.35       70.00    
  38  -1000.0     -1000.0     -1000.0     -1000.0     -1000.0       82.09       82.05       81.99       81.90       81.77    
        81.60       81.35       80.95       80.52       80.00       79.60       79.29       79.01       78.75       78.50    
        78.25       78.01       77.77       77.54       77.31       77.08       76.85       76.63       76.40       76.18    
        75.96       75.74       75.51       75.29       75.06       74.83       74.59       74.35       74.09       73.81    
        73.47       73.07       72.65       72.24       71.84       71.43       71.03       70.67       70.33       70.00    
  39  -1000.0     -1000.0     -1000.0     -1000.0     -1000.0     -1000.0       82.03       81.99       81.92       81.82    
        81.69       81.53     -1000.0     -1000.0       79.69       79.35       79.09       78.86       78.64       78.41    
        78.18       77.96       77.73       77.50       77.28       77.06       76.85       76.63       76.42       76.21    
        75.99       75.77       75.56       75.34       75.12       74.89       74.67       74.45       74.22       73.96    
        73.65       73.13       72.68       72.25       71.83       71.40       70.95       70.61       70.29       70.00    
  40  -1000.0     -1000.0     -1000.0     -1000.0     -1000.0     -1000.0       82.02       81.99       81.94       81.88    
        81.80     -1000.0     -1000.0     -1000.0     -1000.0       79.00       78.88       78.71       78.52       78.32    
        78.11       77.90       77.68       77.47       77.26       77.05       76.84       76.64       76.43       76.23    
        76.02       75.81       75.60       75.38       75.17       74.96       74.76       74.55       74.36       74.18    
        74.04     -1000.0     -1000.0     -1000.0     -1000.0     -1000.0       70.74       70.53       70.23       70.00    
  41  -1000.0     -1000.0     -1000.0     -1000.0     -1000.0     -1000.0     -1000.0       81.99       81.96       81.93    
      -1000.0     -1000.0     -1000.0     -1000.0     -1000.0       78.78       78.70       78.57       78.41       78.23    
        78.04       77.84       77.63       77.43       77.23       77.03       76.83       76.64       76.45       76.25    
        76.06       75.85       75.64       75.43       75.22       75.02       74.83       74.65       74.49       74.36    
        74.28     -1000.0     -1000.0     -1000.0     -1000.0     -1000.0     -1000.0     -1000.0       70.12       70.00    
  42  -1000.0     -1000.0     -1000.0     -1000.0     -1000.0     -1000.0     -1000.0     -1000.0     -1000.0     -1000.0    
      -1000.0     -1000.0     -1000.0     -1000.0     -1000.0       78.64       78.57       78.47       78.33       78.16    
        77.98       77.79       77.58       77.38       77.19       77.00       76.82       76.64       76.46       76.28    
        76.09       75.90       75.69       75.48       75.27       75.08       74.90       74.73       74.59       74.49    
        74.43     -1000.0     -1000.0     -1000.0     -1000.0     -1000.0     -1000.0     -1000.0     -1000.0     -1000.0    
  43  -1000.0     -1000.0     -1000.0     -1000.0     -1000.0     -1000.0     -1000.0     -1000.0     -1000.0     -1000.0    
      -1000.0     -1000.0     -1000.0     -1000.0     -1000.0       78.56       78.48       78.39       78.27       78.11    
        77.94       77.74       77.53       77.34       77.15       76.97       76.80       76.64       76.48       76.32    
        76.14       75.95       75.73       75.51       75.31       75.11       74.94       74.79       74.66       74.57    
        74.52     -1000.0     -1000.0     -1000.0     -1000.0     -1000.0     -1000.0     -1000.0     -1000.0     -1000.0    
  44  -1000.0     -1000.0     -1000.0     -1000.0     -1000.0     -1000.0     -1000.0     -1000.0     -1000.0     -1000.0    
      -1000.0     -1000.0     -1000.0     -1000.0     -1000.0     -1000.0       78.42       78.35       78.23       78.08    
        77.91       77.70       77.46       77.28       77.10       76.93       76.78       76.64       76.50       76.36    
        76.21       76.04       75.77       75.54       75.33       75.14       74.96       74.82       74.70       74.61    
        74.57     -1000.0     -1000.0     -1000.0     -1000.0     -1000.0     -1000.0     -1000.0     -1000.0     -1000.0    
  45  -1000.0     -1000.0     -1000.0     -1000.0     -1000.0     -1000.0     -1000.0     -1000.0     -1000.0     -1000.0    
      -1000.0     -1000.0     -1000.0     -1000.0     -1000.0     -1000.0     -1000.0     -1000.0     -1000.0     -1000.0    
      -1000.0     -1000.0       77.34       77.21       77.03       76.88       76.75       76.63       76.52       76.41    
        76.31       76.22     -1000.0     -1000.0     -1000.0     -1000.0     -1000.0     -1000.0     -1000.0     -1000.0    
      -1000.0     -1000.0     -1000.0     -1000.0     -1000.0     -1000.0     -1000.0     -1000.0     -1000.0     -1000.0    
  46  -1000.0     -1000.0     -1000.0     -1000.0     -1000.0     -1000.0     -1000.0     -1000.0     -1000.0     -1000.0    
      -1000.0     -1000.0     -1000.0     -1000.0     -1000.0     -1000.0     -1000.0     -1000.0     -1000.0     -1000.0    
      -1000.0     -1000.0     -1000.0     -1000.0       76.92       76.81       76.71       76.62       76.54       76.45    
        76.38       76.33     -1000.0     -1000.0     -1000.0     -1000.0     -1000.0     -1000.0     -1000.0     -1000.0    
      -1000.0     -1000.0     -1000.0     -1000.0     -1000.0     -1000.0     -1000.0     -1000.0     -1000.0     -1000.0    
  47  -1000.0     -1000.0     -1000.0     -1000.0     -1000.0     -1000.0     -1000.0     -1000.0     -1000.0     -1000.0    
      -1000.0     -1000.0     -1000.0     -1000.0     -1000.0     -1000.0     -1000.0     -1000.0     -1000.0     -1000.0    
      -1000.0     -1000.0     -1000.0     -1000.0     -1000.0       76.72       76.67       76.61       76.55       76.49    
        76.43       76.38     -1000.0     -1000.0     -1000.0     -1000.0     -1000.0     -1000.0     -1000.0     -1000.0    
      -1000.0     -1000.0     -1000.0     -1000.0     -1000.0     -1000.0     -1000.0     -1000.0     -1000.0     -1000.0    
  48  -1000.0     -1000.0     -1000.0     -1000.0     -1000.0     -1000.0     -1000.0     -1000.0     -1000.0     -1000.0    
      -1000.0     -1000.0     -1000.0     -1000.0     -1000.0     -1000.0     -1000.0     -1000.0     -1000.0     -1000.0    
      -1000.0     -1000.0     -1000.0     -1000.0     -1000.0       76.67       76.64       76.60       76.56       76.51    
        76.47     -1000.0     -1000.0     -1000.0     -1000.0     -1000.0     -1000.0     -1000.0     -1000.0     -1000.0    
      -1000.0     -1000.0     -1000.0     -1000.0     -1000.0     -1000.0     -1000.0     -1000.0     -1000.0     -1000.0    
  49  -1000.0     -1000.0     -1000.0     -1000.0     -1000.0     -1000.0     -1000.0     -1000.0     -1000.0     -1000.0    
      -1000.0     -1000.0     -1000.0     -1000.0     -1000.0     -1000.0     -1000.0     -1000.0     -1000.0     -1000.0    
      -1000.0     -1000.0     -1000.0     -1000.0     -1000.0       76.65       76.63       76.60       76.57       76.54    
      -1000.0     -1000.0     -1000.0     -1000.0     -1000.0     -1000.0     -1000.0     -1000.0     -1000.0     -1000.0    
      -1000.0     -1000.0     -1000.0     -1000.0     -1000.0     -1000.0     -1000.0     -1000.0     -1000.0     -1000.0    
  50  -1000.0     -1000.0     -1000.0     -1000.0     -1000.0     -1000.0     -1000.0     -1000.0     -1000.0     -1000.0    
      -1000.0     -1000.0     -1000.0     -1000.0     -1000.0     -1000.0     -1000.0     -1000.0     -1000.0     -1000.0    
      -1000.0     -1000.0     -1000.0     -1000.0     -1000.0     -1000.0     -1000.0     -1000.0     -1000.0     -1000.0    
      -1000.0     -1000.0     -1000.0     -1000.0     -1000.0     -1000.0     -1000.0     -1000.0     -1000.0     -1000.0    
      -1000.0     -1000.0     -1000.0     -1000.0     -1000.0     -1000.0     -1000.0     -1000.0     -1000.0     -1000.0    
1
              HEAD IN LAYER   2 AT END OF TIME STEP   1 IN STRESS PERIOD    1
  ---------------------------------------------------------------------------

            1           2           3           4           5           6           7           8           9          10
           11          12          13          14          15          16          17          18          19          20
           21          22          23          24          25          26          27          28          29          30
           31          32          33          34          35          36          37          38          39          40
           41          42          43          44          45          46          47          48          49          50
 ........................................................................................................................
   1  -1000.0     -1000.0     -1000.0     -1000.0     -1000.0     -1000.0     -1000.0     -1000.0     -1000.0     -1000.0    
      -1000.0     -1000.0     -1000.0     -1000.0     -1000.0     -1000.0     -1000.0     -1000.0     -1000.0     -1000.0    
      -1000.0     -1000.0     -1000.0     -1000.0     -1000.0     -1000.0     -1000.0     -1000.0     -1000.0     -1000.0    
      -1000.0     -1000.0     -1000.0     -1000.0     -1000.0     -1000.0     -1000.0     -1000.0     -1000.0     -1000.0    
      -1000.0     -1000.0     -1000.0     -1000.0     -1000.0     -1000.0     -1000.0     -1000.0     -1000.0     -1000.0    
   2  -1000.0     -1000.0     -1000.0     -1000.0     -1000.0     -1000.0     -1000.0     -1000.0     -1000.0     -1000.0    
      -1000.0     -1000.0     -1000.0     -1000.0     -1000.0     -1000.0     -1000.0     -1000.0     -1000.0     -1000.0    
      -1000.0     -1000.0     -1000.0       76.82       76.76       76.66       76.53       76.40       76.26       76.12    
        75.99       75.86       75.76       75.69     -1000.0     -1000.0     -1000.0     -1000.0     -1000.0     -1000.0    
      -1000.0     -1000.0     -1000.0     -1000.0     -1000.0     -1000.0     -1000.0     -1000.0     -1000.0     -1000.0    
   3  -1000.0     -1000.0     -1000.0     -1000.0     -1000.0     -1000.0     -1000.0     -1000.0     -1000.0     -1000.0    
      -1000.0     -1000.0     -1000.0     -1000.0     -1000.0     -1000.0     -1000.0     -1000.0     -1000.0     -1000.0    
      -1000.0     -1000.0       76.98       76.89       76.79       76.68       76.54       76.41       76.26       76.12    
        75.98       75.84       75.72       75.62       75.52     -1000.0     -1000.0     -1000.0     -1000.0     -1000.0    
      -1000.0     -1000.0     -1000.0     -1000.0     -1000.0     -1000.0     -1000.0     -1000.0     -1000.0     -1000.0    
   4  -1000.0     -1000.0     -1000.0     -1000.0     -1000.0     -1000.0     -1000.0     -1000.0     -1000.0     -1000.0    
      -1000.0     -1000.0     -1000.0     -1000.0     -1000.0     -1000.0     -1000.0     -1000.0     -1000.0     -1000.0    
      -1000.0     -1000.0       77.07       76.97       76.84       76.71       76.56       76.41       76.26       76.11    
        75.96       75.81       75.67       75.53       75.43     -1000.0     -1000.0     -1000.0     -1000.0     -1000.0    
      -1000.0     -1000.0     -1000.0     -1000.0     -1000.0     -1000.0     -1000.0     -1000.0     -1000.0     -1000.0    
   5  -1000.0     -1000.0     -1000.0     -1000.0     -1000.0     -1000.0     -1000.0     -1000.0     -1000.0     -1000.0    
      -1000.0     -1000.0     -1000.0     -1000.0     -1000.0     -1000.0     -1000.0       78.16       78.08       77.94    
        77.75       77.53       77.25       77.07       76.91       76.75       76.59       76.43       76.26       76.10    
        75.93       75.77       75.60       75.43       75.23       74.92       74.65       74.41       74.18       73.96    
        73.77       73.60       73.46       73.37     -1000.0     -1000.0     -1000.0     -1000.0     -1000.0     -1000.0    
   6  -1000.0     -1000.0     -1000.0     -1000.0     -1000.0     -1000.0     -1000.0     -1000.0     -1000.0     -1000.0    
      -1000.0     -1000.0     -1000.0     -1000.0     -1000.0     -1000.0     -1000.0       78.25       78.14       77.98    
        77.79       77.58       77.35       77.15       76.97       76.79       76.62       76.44       76.27       76.09    
        75.91       75.73       75.55       75.35       75.13       74.88       74.63       74.39       74.16       73.95    
        73.75       73.57       73.41       73.28       73.16     -1000.0     -1000.0     -1000.0     -1000.0     -1000.0    
   7  -1000.0     -1000.0     -1000.0     -1000.0     -1000.0     -1000.0     -1000.0     -1000.0     -1000.0     -1000.0    
      -1000.0     -1000.0     -1000.0       79.23       79.13       78.96       78.73       78.44       78.24       78.05    
        77.85       77.64       77.42       77.22       77.02       76.83       76.64       76.46       76.27       76.08    
        75.89       75.70       75.50       75.29       75.07       74.83       74.59       74.36       74.13       73.91    
        73.70       73.51       73.33       73.17       73.05     -1000.0     -1000.0     -1000.0     -1000.0     -1000.0    
   8  -1000.0     -1000.0     -1000.0     -1000.0     -1000.0     -1000.0     -1000.0     -1000.0     -1000.0     -1000.0    
      -1000.0     -1000.0       79.41       79.31       79.18       79.00       78.79       78.56       78.34       78.13    
        77.91       77.70       77.48       77.27       77.07       76.87       76.67       76.47       76.27       76.07    
        75.87       75.67       75.46       75.25       75.02       74.79       74.56       74.32       74.09       73.87    
        73.65       73.44       73.23       73.03       72.81       72.50       72.28       72.16     -1000.0     -1000.0    
   9  -1000.0     -1000.0     -1000.0     -1000.0     -1000.0     -1000.0     -1000.0     -1000.0     -1000.0     -1000.0    
      -1000.0     -1000.0       79.48       79.40       79.27       79.08       78.87       78.65       78.43       78.20    
        77.98       77.76       77.54       77.32       77.11       76.90       76.69       76.48       76.27       76.07    
        75.86       75.65       75.43       75.21       74.98       74.75       74.52       74.28       74.05       73.81    
        73.58       73.36       73.13       72.90       72.66       72.40       72.19       72.05     -1000.0     -1000.0    
  10  -1000.0     -1000.0     -1000.0     -1000.0     -1000.0     -1000.0     -1000.0     -1000.0     -1000.0     -1000.0    
      -1000.0     -1000.0       79.60       79.52       79.38       79.18       78.97       78.74       78.51       78.28    
        78.05       77.82       77.60       77.37       77.15       76.93       76.71       76.49       76.28       76.06    
        75.84       75.63       75.40       75.18       74.95       74.71       74.48       74.24       74.00       73.76    
        73.52       73.28       73.03       72.78       72.53       72.26       72.01       71.78       71.54     -1000.0    
  11  -1000.0     -1000.0     -1000.0     -1000.0     -1000.0     -1000.0     -1000.0     -1000.0     -1000.0     -1000.0    
      -1000.0     -1000.0       79.78       79.68       79.52       79.30       79.07       78.84       78.60       78.36    
        78.12       77.88       77.65       77.41       77.18       76.96       76.73       76.50       76.28       76.06    
        75.83       75.61       75.38       75.15       74.91       74.68       74.44       74.19       73.95       73.70    
        73.45       73.20       72.94       72.67       72.40       72.11       71.82       71.54       71.29     -1000.0    
  12  -1000.0     -1000.0     -1000.0     -1000.0     -1000.0     -1000.0     -1000.0     -1000.0     -1000.0     -1000.0    
      -1000.0     -1000.0       80.04       79.89       79.68       79.43       79.18       78.93       78.68       78.43    
        78.18       77.94       77.70       77.45       77.22       76.98       76.75       76.51       76.28       76.05    
        75.82       75.59       75.36       75.12       74.88       74.64       74.40       74.15       73.90       73.65    
        73.39       73.12       72.85       72.57       72.27       71.96       71.63       71.26       70.79       70.00    
  13  -1000.0     -1000.0     -1000.0     -1000.0     -1000.0       82.22       82.13       81.98       81.79       81.55    
        81.25       80.89       80.42       80.12       79.85       79.57       79.30       79.03       78.77       78.51    
        78.25       77.99       77.74       77.49       77.24       77.00       76.76       76.52       76.28       76.05    
        75.81       75.57       75.34       75.10       74.86       74.61       74.36       74.11       73.85       73.59    
        73.33       73.05       72.77       72.47       72.16       71.83       71.47       71.07       70.59       70.00    
  14  -1000.0     -1000.0     -1000.0       82.47       82.41       82.29       82.16       82.01       81.81       81.58    
        81.30       80.98       80.62       80.30       80.00       79.70       79.41       79.12       78.85       78.57    
        78.31       78.04       77.78       77.52       77.27       77.02       76.77       76.53       76.28       76.04    
        75.80       75.56       75.32       75.07       74.83       74.58       74.33       74.07       73.81       73.55    
        73.27       72.99       72.70       72.39       72.07       71.73       71.36       70.95       70.50       70.00    
  15  -1000.0     -1000.0       82.57       82.51       82.44       82.33       82.20       82.04       81.85       81.62    
        81.36       81.07       80.75       80.44       80.13       79.81       79.51       79.21       78.92       78.64    
        78.36       78.09       77.82       77.55       77.29       77.03       76.78       76.53       76.28       76.03    
        75.79       75.54       75.30       75.05       74.81       74.55       74.30       74.04       73.78       73.51    
        73.23       72.94       72.64       72.33       72.00       71.65       71.28       70.88       70.45       70.00    
  16  -1000.0     -1000.0       82.60       82.56       82.48       82.38       82.25       82.09       81.90       81.68    
        81.43       81.16       80.86       80.55       80.23       79.91       79.59       79.29       78.99       78.70    
        78.41       78.13       77.85       77.57       77.31       77.04       76.78       76.53       76.27       76.02    
        75.78       75.53       75.28       75.03       74.78       74.53       74.27       74.01       73.75       73.47    
        73.19       72.90       72.60       72.28       71.95       71.60       71.23       70.84       70.42       70.00    
  17  -1000.0     -1000.0       82.64       82.60       82.53       82.44       82.31       82.15       81.97       81.75    
        81.51       81.24       80.95       80.65       80.33       80.00       79.67       79.36       79.05       78.75    
        78.45       78.16       77.87       77.59       77.32       77.05       76.78       76.52       76.27       76.01    
        75.76       75.51       75.26       75.01       74.76       74.51       74.25       73.99       73.72       73.45    
        73.16       72.87       72.56       72.24       71.91       71.56       71.19       70.81       70.41       70.00    
  18  -1000.0     -1000.0       82.71       82.66       82.59       82.49       82.37       82.21       82.03       81.82    
        81.58       81.32       81.04       80.73       80.41       80.07       79.74       79.42       79.10       78.79    
        78.49       78.19       77.89       77.60       77.32       77.05       76.78       76.51       76.25       76.00    
        75.74       75.49       75.24       74.99       74.74       74.49       74.23       73.97       73.70       73.43    
        73.15       72.85       72.54       72.22       71.89       71.54       71.17       70.79       70.40       70.00    
  19  -1000.0       82.84       82.79       82.73       82.66       82.56       82.43       82.28       82.10       81.90    
        81.66       81.40       81.12       80.81       80.49       80.14       79.80       79.47       79.15       78.83    
        78.51       78.21       77.90       77.61       77.32       77.04       76.76       76.50       76.23       75.98    
        75.72       75.47       75.22       74.98       74.73       74.47       74.22       73.96       73.69       73.42    
        73.14       72.84       72.53       72.21       71.88       71.53       71.16       70.78       70.40       70.00    
  20  -1000.0       82.88       82.84       82.79       82.72       82.63       82.51       82.36       82.18       81.97    
        81.74       81.48       81.19       80.88       80.55       80.20       79.86       79.52       79.19       78.86    
        78.54       78.22       77.91       77.61       77.31       77.02       76.74       76.47       76.21       75.95    
        75.70       75.45       75.20       74.96       74.71       74.46       74.21       73.95       73.69       73.42    
        73.14       72.84       72.54       72.22       71.88       71.53       71.17       70.79       70.40       70.00    
  21  -1000.0       82.92       82.90       82.85       82.79       82.70       82.58       82.44       82.26       82.06    
        81.82       81.56       81.27       80.95       80.62       80.26       79.91       79.56       79.22       78.88    
        78.55       78.22       77.90       77.59       77.29       77.00       76.72       76.44       76.18       75.92    
        75.67       75.43       75.18       74.94       74.70       74.45       74.20       73.95       73.69       73.42    
        73.15       72.86       72.55       72.24       71.90       71.55       71.18       70.80       70.40       70.00    
  22  -1000.0       82.97       82.95       82.91       82.85       82.77       82.66       82.52       82.35       82.15    
        81.91       81.64       81.34       81.02       80.67       80.31       79.95       79.59       79.24       78.90    
        78.56       78.22       77.89       77.57       77.26       76.96       76.68       76.40       76.14       75.89    
        75.64       75.40       75.16       74.92       74.68       74.44       74.20       73.95       73.70       73.44    
        73.17       72.88       72.58       72.27       71.94       71.58       71.21       70.82       70.41       70.00    
  23  -1000.0       83.01       83.00       82.97       82.92       82.85       82.75       82.62       82.45       82.25    
        82.01       81.73       81.42       81.08       80.73       80.35       79.98       79.62       79.26       78.91    
        78.56       78.21       77.87       77.54       77.22       76.91       76.62       76.35       76.09       75.84    
        75.60       75.36       75.13       74.90       74.67       74.44       74.20       73.96       73.72       73.46    
        73.20       72.92       72.63       72.32       71.99       71.63       71.25       70.85       70.43       70.00    
  24  -1000.0       83.05       83.04       83.02       82.98       82.93       82.85       82.73       82.56       82.36    
        82.11       81.83       81.50       81.15       80.77       80.39       80.01       79.64       79.27       78.91    
        78.55       78.19       77.84       77.49       77.15       76.84       76.56       76.29       76.03       75.79    
        75.55       75.33       75.10       74.88       74.66       74.43       74.21       73.98       73.74       73.50    
        73.24       72.97       72.69       72.39       72.06       71.71       71.32       70.90       70.45       70.00    
  25  -1000.0       83.07       83.07       83.05       83.04       83.03       82.97       82.85       82.70       82.49    
        82.24       81.94       81.59       81.20       80.81       80.41       80.03       79.65       79.28       78.91    
        78.54       78.17       77.80       77.42       77.07       76.75       76.47       76.21       75.96       75.73    
        75.50       75.28       75.07       74.86       74.65       74.43       74.22       74.00       73.77       73.54    
        73.30       73.04       72.77       72.48       72.17       71.82       71.42       70.97       70.48       70.00    
  26  -1000.0       83.09       83.08       83.07       83.08       83.15       83.11       83.00       82.85       82.64    
        82.39       82.08       81.69       81.23       80.82       80.42       80.03       79.65       79.28       78.91    
        78.54       78.15       77.76       77.34       76.94       76.63       76.35       76.11       75.88       75.66    
        75.44       75.24       75.04       74.84       74.63       74.43       74.23       74.02       73.81       73.59    
        73.36       73.12       72.87       72.60       72.30       71.97       71.56       71.06       70.51       70.00    
  27  -1000.0     -1000.0       83.06       83.05       83.04       83.02       82.96       82.85       82.69       82.49    
        82.24       81.94       81.59       81.20       80.81       80.41       80.03       79.65       79.28       78.91    
        78.55       78.17       77.80       77.43       77.07       76.76       76.47       76.21       75.97       75.74    
        75.51       75.30       75.08       74.87       74.66       74.44       74.23       74.01       73.78       73.55    
        73.30       73.05       72.78       72.48       72.17       71.82       71.42       70.96       70.48       70.00    
  28  -1000.0     -1000.0       83.03       83.01       82.98       82.92       82.84       82.71       82.55       82.35    
        82.11       81.82       81.50       81.15       80.77       80.39       80.01       79.64       79.27       78.91    
        78.55       78.20       77.84       77.50       77.16       76.85       76.57       76.30       76.05       75.81    
        75.58       75.35       75.13       74.90       74.68       74.46       74.23       74.00       73.76       73.51    
        73.25       72.98       72.70       72.39       72.06       71.71       71.32       70.90       70.45       70.00    
  29  -1000.0     -1000.0       82.99       82.96       82.91       82.83       82.73       82.60       82.43       82.23    
        82.00       81.73       81.42       81.09       80.73       80.35       79.98       79.62       79.26       78.91    
        78.56       78.22       77.88       77.55       77.23       76.93       76.64       76.37       76.12       75.87    
        75.63       75.40       75.17       74.94       74.71       74.47       74.24       74.00       73.75       73.49    
        73.22       72.94       72.64       72.32       71.99       71.63       71.25       70.85       70.43       70.00    
  30  -1000.0     -1000.0       82.96       82.92       82.85       82.74       82.62       82.49       82.32       82.13    
        81.90       81.64       81.35       81.02       80.68       80.31       79.95       79.59       79.24       78.90    
        78.56       78.23       77.90       77.58       77.28       76.98       76.70       76.43       76.18       75.93    
        75.68       75.44       75.21       74.97       74.73       74.49       74.25       74.00       73.74       73.47    
        73.19       72.90       72.60       72.27       71.93       71.58       71.20       70.81       70.41       70.00    
  31  -1000.0     -1000.0       82.94       82.89       82.80       82.64       82.51       82.38       82.22       82.04    
        81.81       81.56       81.27       80.96       80.62       80.26       79.91       79.56       79.22       78.88    
        78.55       78.23       77.92       77.61       77.31       77.02       76.75       76.48       76.22       75.97    
        75.73       75.48       75.24       75.00       74.76       74.52       74.27       74.01       73.74       73.47    
        73.18       72.88       72.57       72.24       71.90       71.54       71.17       70.79       70.40       70.00    
  32  -1000.0     -1000.0     -1000.0     -1000.0     -1000.0       82.46       82.39       82.28       82.13       81.95    
        81.74       81.49       81.21       80.90       80.57       80.21       79.86       79.52       79.18       78.86    
        78.54       78.22       77.92       77.62       77.33       77.05       76.78       76.52       76.26       76.01    
        75.77       75.52       75.28       75.04       74.79       74.54       74.29       74.03       73.75       73.47    
        73.18       72.87       72.55       72.22       71.87       71.51       71.15       70.77       70.39       70.00    
  33  -1000.0     -1000.0     -1000.0     -1000.0     -1000.0       82.34       82.29       82.19       82.05       81.88    
        81.67       81.42       81.14       80.84       80.50       80.15       79.81       79.47       79.14       78.82    
        78.51       78.21       77.91       77.63       77.35       77.07       76.81       76.55       76.30       76.05    
        75.80       75.56       75.32       75.07       74.83       74.58       74.32       74.05       73.78       73.49    
        73.19       72.87       72.54       72.21       71.86       71.50       71.13       70.76       70.38       70.00    
  34  -1000.0     -1000.0     -1000.0     -1000.0     -1000.0       82.25       82.21       82.12       81.99       81.82    
        81.61       81.37       81.08       80.77       80.44       80.08       79.74       79.41       79.09       78.78    
        78.48       78.19       77.90       77.62       77.35       77.09       76.83       76.57       76.33       76.08    
        75.84       75.60       75.35       75.11       74.87       74.61       74.36       74.09       73.81       73.52    
        73.21       72.89       72.55       72.20       71.85       71.48       71.12       70.75       70.37       70.00    
  35  -1000.0     -1000.0     -1000.0     -1000.0     -1000.0       82.19       82.14       82.06       81.94       81.78    
        81.57       81.32       81.03       80.71       80.36       80.00       79.66       79.34       79.03       78.73    
        78.44       78.15       77.88       77.61       77.35       77.09       76.84       76.59       76.35       76.11    
        75.87       75.63       75.39       75.15       74.91       74.66       74.40       74.13       73.85       73.56    
        73.24       72.91       72.56       72.21       71.84       71.48       71.11       70.74       70.37       70.00    
  36  -1000.0     -1000.0     -1000.0     -1000.0     -1000.0       82.14       82.10       82.02       81.91       81.75    
        81.55       81.29       80.99       80.64       80.28       79.91       79.57       79.25       78.95       78.66    
        78.38       78.11       77.85       77.59       77.34       77.09       76.85       76.61       76.37       76.14    
        75.90       75.67       75.43       75.19       74.95       74.71       74.45       74.19       73.91       73.61    
        73.29       72.95       72.59       72.22       71.84       71.47       71.09       70.72       70.36       70.00    
  37  -1000.0     -1000.0     -1000.0     -1000.0     -1000.0       82.11       82.07       82.00       81.89       81.75    
        81.55       81.30       80.96       80.58       80.17       79.78       79.44       79.14       78.86       78.59    
        78.32       78.07       77.81       77.57       77.33       77.09       76.85       76.62       76.39       76.16    
        75.93       75.70       75.47       75.24       75.00       74.77       74.52       74.26       73.99       73.69    
        73.37       73.00       72.62       72.23       71.84       71.45       71.07       70.70       70.35       70.00    
  38  -1000.0     -1000.0     -1000.0     -1000.0     -1000.0       82.09       82.05       81.99       81.90       81.77    
        81.60       81.35       80.95       80.52       80.00       79.60       79.29       79.01       78.75       78.50    
        78.25       78.01       77.77       77.54       77.31       77.08       76.85       76.63       76.40       76.18    
        75.96       75.74       75.51       75.29       75.06       74.83       74.59       74.35       74.09       73.81    
        73.47       73.07       72.65       72.24       71.84       71.43       71.03       70.67       70.33       70.00    
  39  -1000.0     -1000.0     -1000.0     -1000.0     -1000.0     -1000.0       82.03       81.99       81.92       81.82    
        81.69       81.53     -1000.0     -1000.0       79.69       79.35       79.09       78.86       78.64       78.41    
        78.18       77.96       77.73       77.50       77.28       77.06       76.85       76.63       76.42       76.21    
        75.99       75.77       75.56       75.34       75.12       74.89       74.67       74.45       74.22       73.96    
        73.65       73.13       72.68       72.25       71.83       71.40       70.95       70.61       70.29       70.00    
  40  -1000.0     -1000.0     -1000.0     -1000.0     -1000.0     -1000.0       82.02       81.99       81.94       81.88    
        81.80     -1000.0     -1000.0     -1000.0     -1000.0       79.00       78.88       78.71       78.52       78.32    
        78.11       77.90       77.68       77.47       77.26       77.05       76.84       76.64       76.43       76.23    
        76.02       75.81       75.60       75.38       75.17       74.96       74.76       74.55       74.36       74.18    
        74.04     -1000.0     -1000.0     -1000.0     -1000.0     -1000.0       70.74       70.53       70.23       70.00    
  41  -1000.0     -1000.0     -1000.0     -1000.0     -1000.0     -1000.0     -1000.0       81.99       81.96       81.93    
      -1000.0     -1000.0     -1000.0     -1000.0     -1000.0       78.78       78.70       78.57       78.41       78.23    
        78.04       77.84       77.63       77.43       77.23       77.03       76.83       76.64       76.45       76.25    
        76.06       75.85       75.64       75.43       75.22       75.02       74.83       74.65       74.49       74.36    
        74.28     -1000.0     -1000.0     -1000.0     -1000.0     -1000.0     -1000.0     -1000.0       70.12       70.00    
  42  -1000.0     -1000.0     -1000.0     -1000.0     -1000.0     -1000.0     -1000.0     -1000.0     -1000.0     -1000.0    
      -1000.0     -1000.0     -1000.0     -1000.0     -1000.0       78.64       78.57       78.47       78.33       78.16    
        77.98       77.79       77.58       77.38       77.19       77.00       76.82       76.64       76.46       76.28    
        76.09       75.90       75.69       75.48       75.27       75.08       74.90       74.73       74.59       74.49    
        74.43     -1000.0     -1000.0     -1000.0     -1000.0     -1000.0     -1000.0     -1000.0     -1000.0     -1000.0    
  43  -1000.0     -1000.0     -1000.0     -1000.0     -1000.0     -1000.0     -1000.0     -1000.0     -1000.0     -1000.0    
      -1000.0     -1000.0     -1000.0     -1000.0     -1000.0       78.56       78.48       78.39       78.27       78.11    
        77.94       77.74       77.53       77.34       77.15       76.97       76.80       76.64       76.48       76.32    
        76.14       75.95       75.73       75.51       75.31       75.11       74.94       74.79       74.66       74.57    
        74.52     -1000.0     -1000.0     -1000.0     -1000.0     -1000.0     -1000.0     -1000.0     -1000.0     -1000.0    
  44  -1000.0     -1000.0     -1000.0     -1000.0     -1000.0     -1000.0     -1000.0     -1000.0     -1000.0     -1000.0    
      -1000.0     -1000.0     -1000.0     -1000.0     -1000.0     -1000.0       78.42       78.35       78.23       78.08    
        77.91       77.70       77.46       77.28       77.10       76.93       76.78       76.64       76.50       76.36    
        76.21       76.04       75.77       75.54       75.33       75.14       74.96       74.82       74.70       74.61    
        74.57     -1000.0     -1000.0     -1000.0     -1000.0     -1000.0     -1000.0     -1000.0     -1000.0     -1000.0    
  45  -1000.0     -1000.0     -1000.0     -1000.0     -1000.0     -1000.0     -1000.0     -1000.0     -1000.0     -1000.0    
      -1000.0     -1000.0     -1000.0     -1000.0     -1000.0     -1000.0     -1000.0     -1000.0     -1000.0     -1000.0    
      -1000.0     -1000.0       77.34       77.21       77.03       76.88       76.75       76.63       76.52       76.41    
        76.31       76.22     -1000.0     -1000.0     -1000.0     -1000.0     -1000.0     -1000.0     -1000.0     -1000.0    
      -1000.0     -1000.0     -1000.0     -1000.0     -1000.0     -1000.0     -1000.0     -1000.0     -1000.0     -1000.0    
  46  -1000.0     -1000.0     -1000.0     -1000.0     -1000.0     -1000.0     -1000.0     -1000.0     -1000.0     -1000.0    
      -1000.0     -1000.0     -1000.0     -1000.0     -1000.0     -1000.0     -1000.0     -1000.0     -1000.0     -1000.0    
      -1000.0     -1000.0     -1000.0     -1000.0       76.92       76.81       76.71       76.62       76.54       76.45    
        76.38       76.33     -1000.0     -1000.0     -1000.0     -1000.0     -1000.0     -1000.0     -1000.0     -1000.0    
      -1000.0     -1000.0     -1000.0     -1000.0     -1000.0     -1000.0     -1000.0     -1000.0     -1000.0     -1000.0    
  47  -1000.0     -1000.0     -1000.0     -1000.0     -1000.0     -1000.0     -1000.0     -1000.0     -1000.0     -1000.0    
      -1000.0     -1000.0     -1000.0     -1000.0     -1000.0     -1000.0     -1000.0     -1000.0     -1000.0     -1000.0    
      -1000.0     -1000.0     -1000.0     -1000.0     -1000.0       76.72       76.67       76.61       76.55       76.49    
        76.43       76.38     -1000.0     -1000.0     -1000.0     -1000.0     -1000.0     -1000.0     -1000.0     -1000.0    
      -1000.0     -1000.0     -1000.0     -1000.0     -1000.0     -1000.0     -1000.0     -1000.0     -1000.0     -1000.0    
  48  -1000.0     -1000.0     -1000.0     -1000.0     -1000.0     -1000.0     -1000.0     -1000.0     -1000.0     -1000.0    
      -1000.0     -1000.0     -1000.0     -1000.0     -1000.0     -1000.0     -1000.0     -1000.0     -1000.0     -1000.0    
      -1000.0     -1000.0     -1000.0     -1000.0     -1000.0       76.67       76.64       76.60       76.56       76.51    
        76.47     -1000.0     -1000.0     -1000.0     -1000.0     -1000.0     -1000.0     -1000.0     -1000.0     -1000.0    
      -1000.0     -1000.0     -1000.0     -1000.0     -1000.0     -1000.0     -1000.0     -1000.0     -1000.0     -1000.0    
  49  -1000.0     -1000.0     -1000.0     -1000.0     -1000.0     -1000.0     -1000.0     -1000.0     -1000.0     -1000.0    
      -1000.0     -1000.0     -1000.0     -1000.0     -1000.0     -1000.0     -1000.0     -1000.0     -1000.0     -1000.0    
      -1000.0     -1000.0     -1000.0     -1000.0     -1000.0       76.65       76.63       76.60       76.57       76.54    
      -1000.0     -1000.0     -1000.0     -1000.0     -1000.0     -1000.0     -1000.0     -1000.0     -1000.0     -1000.0    
      -1000.0     -1000.0     -1000.0     -1000.0     -1000.0     -1000.0     -1000.0     -1000.0     -1000.0     -1000.0    
  50  -1000.0     -1000.0     -1000.0     -1000.0     -1000.0     -1000.0     -1000.0     -1000.0     -1000.0     -1000.0    
      -1000.0     -1000.0     -1000.0     -1000.0     -1000.0     -1000.0     -1000.0     -1000.0     -1000.0     -1000.0    
      -1000.0     -1000.0     -1000.0     -1000.0     -1000.0     -1000.0     -1000.0     -1000.0     -1000.0     -1000.0    
      -1000.0     -1000.0     -1000.0     -1000.0     -1000.0     -1000.0     -1000.0     -1000.0     -1000.0     -1000.0    
      -1000.0     -1000.0     -1000.0     -1000.0     -1000.0     -1000.0     -1000.0     -1000.0     -1000.0     -1000.0    

 HEAD WILL BE SAVED ON UNIT   51 AT END OF TIME STEP    1, STRESS PERIOD    1
1
  VOLUMETRIC BUDGET FOR ENTIRE MODEL AT END OF TIME STEP    1, STRESS PERIOD   1
  ------------------------------------------------------------------------------

     CUMULATIVE VOLUMES      L**3       RATES FOR THIS TIME STEP      L**3/T
     ------------------                 ------------------------

           IN:                                      IN:
           ---                                      ---
             STORAGE =           0.0000               STORAGE =           0.0000
       CONSTANT HEAD =           0.0000         CONSTANT HEAD =           0.0000
            RECHARGE =       14120.0000              RECHARGE =       14120.0000
      STREAM LEAKAGE =        8207.2012        STREAM LEAKAGE =        8207.2012

            TOTAL IN =       22327.2012              TOTAL IN =       22327.2012

          OUT:                                     OUT:
          ----                                     ----
             STORAGE =           0.0000               STORAGE =           0.0000
       CONSTANT HEAD =       18719.9980         CONSTANT HEAD =       18719.9980
            RECHARGE =           0.0000              RECHARGE =           0.0000
      STREAM LEAKAGE =        3607.2019        STREAM LEAKAGE =        3607.2019

           TOTAL OUT =       22327.1992             TOTAL OUT =       22327.1992

            IN - OUT =       1.9531E-03              IN - OUT =       1.9531E-03

 PERCENT DISCREPANCY =           0.00     PERCENT DISCREPANCY =           0.00






         TIME SUMMARY AT END OF TIME STEP    1 IN STRESS PERIOD    1
                    SECONDS     MINUTES      HOURS       DAYS        YEARS
                    -----------------------------------------------------------
   TIME STEP LENGTH  86400.      1440.0      24.000      1.0000     2.73785E-03
 STRESS PERIOD TIME  86400.      1440.0      24.000      1.0000     2.73785E-03
         TOTAL TIME  86400.      1440.0      24.000      1.0000     2.73785E-03
1

 Run end date and time (yyyy/mm/dd hh:mm:ss): 2022/02/21 18:33:32
 Elapsed run time:  0.076 Seconds

