                                  MODFLOW-2005     
      U.S. GEOLOGICAL SURVEY MODULAR FINITE-DIFFERENCE GROUND-WATER FLOW MODEL
                            VERSION 1.12.00 2/3/2017

 LIST FILE: base.list
                         UNIT    2

 OPENING base.dis
 FILE TYPE:DIS   UNIT   11   STATUS:OLD    
 FORMAT:FORMATTED              ACCESS:SEQUENTIAL          

 OPENING base.bas
 FILE TYPE:BAS6   UNIT   13   STATUS:OLD    
 FORMAT:FORMATTED              ACCESS:SEQUENTIAL          

 OPENING base.lpf
 FILE TYPE:LPF   UNIT   15   STATUS:OLD    
 FORMAT:FORMATTED              ACCESS:SEQUENTIAL          

 OPENING base.oc
 FILE TYPE:OC   UNIT   14   STATUS:OLD    
 FORMAT:FORMATTED              ACCESS:SEQUENTIAL          

 OPENING base.pcg
 FILE TYPE:PCG   UNIT   27   STATUS:OLD    
 FORMAT:FORMATTED              ACCESS:SEQUENTIAL          

 OPENING base.rch
 FILE TYPE:RCH   UNIT   19   STATUS:OLD    
 FORMAT:FORMATTED              ACCESS:SEQUENTIAL          

 OPENING base.cbc
 FILE TYPE:DATA(BINARY)   UNIT   53   STATUS:REPLACE
 FORMAT:BINARY                 ACCESS:SEQUENTIAL          

 OPENING base.hds
 FILE TYPE:DATA(BINARY)   UNIT   51   STATUS:REPLACE
 FORMAT:BINARY                 ACCESS:SEQUENTIAL          

 BAS -- BASIC PACKAGE, VERSION 7, 5/2/2005 INPUT READ FROM UNIT   13
 
 MODFLOW was compiled using mixed precision
 Precision of REAL variables:           6
 Precision of DOUBLE PRECISION variables:          15

 DISCRETIZATION INPUT DATA READ FROM UNIT   11
 # DIS package for  MODFLOW-2005, generated by Flopy.
    2 LAYERS        50 ROWS        50 COLUMNS
    1 STRESS PERIOD(S) IN SIMULATION
 MODEL TIME UNIT IS DAYS
 MODEL LENGTH UNIT IS METERS
  Confining bed flag for each layer:
   0   0

                     DELR =   1000.00    

                     DELC =   1000.00    



           TOP ELEVATION OF LAYER 1
 READING ON UNIT   11 WITH FORMAT: (50E15.6)           



             MODEL LAYER BOTTOM EL. FOR LAYER   1
 READING ON UNIT   11 WITH FORMAT: (50E15.6)           



             MODEL LAYER BOTTOM EL. FOR LAYER   2
 READING ON UNIT   11 WITH FORMAT: (50E15.6)           


 STRESS PERIOD     LENGTH       TIME STEPS     MULTIPLIER FOR DELT    SS FLAG
 ----------------------------------------------------------------------------
        1         1.000000          1                    1.000         SS

 STEADY-STATE SIMULATION



 
 # BAS6 package for  MODFLOW-2005, generated by Flopy.                           
 THE FREE FORMAT OPTION HAS BEEN SELECTED



                     BOUNDARY ARRAY FOR LAYER   1
 READING ON UNIT   13 WITH FORMAT: (50I10)             



                     BOUNDARY ARRAY FOR LAYER   2
 READING ON UNIT   13 WITH FORMAT: (50I10)             

 AQUIFER HEAD WILL BE SET TO  -999.99     AT ALL NO-FLOW NODES (IBOUND=0).



                       INITIAL HEAD FOR LAYER   1
 READING ON UNIT   13 WITH FORMAT: (50E15.6)           



                       INITIAL HEAD FOR LAYER   2
 READING ON UNIT   13 WITH FORMAT: (50E15.6)           
 # OC package for  MODFLOW-2005, generated by Flopy.

 OUTPUT CONTROL IS SPECIFIED ONLY AT TIME STEPS FOR WHICH OUTPUT IS DESIRED
 COMPACT CELL-BY-CELL BUDGET FILES WILL BE WRITTEN
 AUXILIARY DATA WILL BE SAVED IN CELL-BY-CELL BUDGET FILES
 HEAD PRINT FORMAT CODE IS   0    DRAWDOWN PRINT FORMAT CODE IS   0
 HEADS WILL BE SAVED ON UNIT   51    DRAWDOWNS WILL BE SAVED ON UNIT    0

 LPF -- LAYER-PROPERTY FLOW PACKAGE, VERSION 7, 5/2/2005
         INPUT READ FROM UNIT   15
 # LPF package for  MODFLOW-2005, generated by Flopy.
 CELL-BY-CELL FLOWS WILL BE SAVED ON UNIT   53
 HEAD AT CELLS THAT CONVERT TO DRY= -1.00000E+30
 No named parameters

   LAYER FLAGS:
 LAYER       LAYTYP        LAYAVG         CHANI        LAYVKA        LAYWET
 ---------------------------------------------------------------------------
    1             1             0     0.000E+00             0             0
    2             1             0     0.000E+00             0             0

   INTERPRETATION OF LAYER FLAGS:
                        INTERBLOCK     HORIZONTAL    DATA IN
         LAYER TYPE   TRANSMISSIVITY   ANISOTROPY   ARRAY VKA   WETTABILITY
 LAYER      (LAYTYP)      (LAYAVG)       (CHANI)      (LAYVKA)      (LAYWET)
 ---------------------------------------------------------------------------
    1   CONVERTIBLE      HARMONIC      VARIABLE    VERTICAL K  NON-WETTABLE
    2   CONVERTIBLE      HARMONIC      VARIABLE    VERTICAL K  NON-WETTABLE

 WETTING CAPABILITY IS NOT ACTIVE IN ANY LAYER

    HYD. COND. ALONG ROWS =   10.0000     FOR LAYER   1

   HORIZ. ANI. (COL./ROW) =   1.00000     FOR LAYER   1

      VERTICAL HYD. COND. =   10.0000     FOR LAYER   1

    HYD. COND. ALONG ROWS =   10.0000     FOR LAYER   2

   HORIZ. ANI. (COL./ROW) =   1.00000     FOR LAYER   2

      VERTICAL HYD. COND. =   10.0000     FOR LAYER   2

 RCH -- RECHARGE PACKAGE, VERSION 7, 5/2/2005 INPUT READ FROM UNIT   19
 # RCH package for  MODFLOW-2005, generated by Flopy.
 No named parameters
 OPTION 3 -- RECHARGE TO HIGHEST ACTIVE NODE IN EACH VERTICAL COLUMN


     0 Recharge parameters

 PCG -- CONJUGATE-GRADIENT SOLUTION PACKAGE, VERSION 7, 5/2/2005
 # PCG package for  MODFLOW-2005, generated by Flopy.
 MAXIMUM OF     50 CALLS OF SOLUTION ROUTINE
 MAXIMUM OF     30 INTERNAL ITERATIONS PER CALL TO SOLUTION ROUTINE
 MATRIX PRECONDITIONING TYPE :    1



                                    SOLUTION BY THE CONJUGATE-GRADIENT METHOD
                                   -------------------------------------------
                    MAXIMUM NUMBER OF CALLS TO PCG ROUTINE =       50
                        MAXIMUM ITERATIONS PER CALL TO PCG =       30
                               MATRIX PRECONDITIONING TYPE =        1
        RELAXATION FACTOR (ONLY USED WITH PRECOND. TYPE 1) =    0.10000E+01
 PARAMETER OF POLYNOMIAL PRECOND. = 2 (2) OR IS CALCULATED :        0
                         HEAD CHANGE CRITERION FOR CLOSURE =    0.10000E-04
                     RESIDUAL CHANGE CRITERION FOR CLOSURE =    0.10000E-04
            PCG HEAD AND RESIDUAL CHANGE PRINTOUT INTERVAL =      999
     PRINTING FROM SOLVER IS LIMITED(1) OR SUPPRESSED (>1) =        3
                            STEADY-STATE DAMPING PARAMETER =    0.10000E+01
                               TRANSIENT DAMPING PARAMETER =    0.10000E+01
1
                            STRESS PERIOD NO.    1, LENGTH =   1.000000    
                            -----------------------------------------------

                              NUMBER OF TIME STEPS =     1

                               MULTIPLIER FOR DELT =     1.000

                            INITIAL TIME STEP SIZE =   1.000000    



                           RECHARGE
 READING ON UNIT   19 WITH FORMAT: (50E15.6)           
 
 SOLVING FOR HEAD 

 OUTPUT CONTROL FOR STRESS PERIOD    1   TIME STEP    1
    PRINT HEAD FOR ALL LAYERS
    PRINT BUDGET
    SAVE HEAD FOR ALL LAYERS
    SAVE BUDGET
 UBDSV2 SAVING "   CONSTANT HEAD" ON UNIT  53 AT TIME STEP  1, STRESS PERIOD   1
 UBDSV1 SAVING "FLOW RIGHT FACE " ON UNIT  53 AT TIME STEP  1, STRESS PERIOD   1
 UBDSV1 SAVING "FLOW FRONT FACE " ON UNIT  53 AT TIME STEP  1, STRESS PERIOD   1
 UBDSV1 SAVING "FLOW LOWER FACE " ON UNIT  53 AT TIME STEP  1, STRESS PERIOD   1
1
              HEAD IN LAYER   1 AT END OF TIME STEP   1 IN STRESS PERIOD    1
  ---------------------------------------------------------------------------

            1           2           3           4           5           6           7           8           9          10
           11          12          13          14          15          16          17          18          19          20
           21          22          23          24          25          26          27          28          29          30
           31          32          33          34          35          36          37          38          39          40
           41          42          43          44          45          46          47          48          49          50
 ........................................................................................................................
   1  -1000.0     -1000.0     -1000.0     -1000.0     -1000.0     -1000.0     -1000.0     -1000.0     -1000.0     -1000.0    
      -1000.0     -1000.0     -1000.0     -1000.0     -1000.0     -1000.0     -1000.0     -1000.0     -1000.0     -1000.0    
      -1000.0     -1000.0     -1000.0     -1000.0     -1000.0     -1000.0     -1000.0     -1000.0     -1000.0     -1000.0    
      -1000.0     -1000.0     -1000.0     -1000.0     -1000.0     -1000.0     -1000.0     -1000.0     -1000.0     -1000.0    
      -1000.0     -1000.0     -1000.0     -1000.0     -1000.0     -1000.0     -1000.0     -1000.0     -1000.0     -1000.0    
   2  -1000.0     -1000.0     -1000.0     -1000.0     -1000.0     -1000.0     -1000.0     -1000.0     -1000.0     -1000.0    
      -1000.0     -1000.0     -1000.0     -1000.0     -1000.0     -1000.0       86.97       86.81       86.58       86.31    
        86.02       85.72       85.41       85.11       84.80       84.51       84.22       83.96       83.73       83.54    
        83.42     -1000.0     -1000.0     -1000.0     -1000.0     -1000.0     -1000.0     -1000.0     -1000.0     -1000.0    
      -1000.0     -1000.0     -1000.0     -1000.0     -1000.0     -1000.0     -1000.0     -1000.0     -1000.0     -1000.0    
   3  -1000.0     -1000.0     -1000.0     -1000.0     -1000.0     -1000.0     -1000.0     -1000.0     -1000.0     -1000.0    
      -1000.0     -1000.0     -1000.0     -1000.0       87.62       87.43       87.14       86.88       86.61       86.33    
        86.03       85.73       85.42       85.10       84.79       84.49       84.20       83.93       83.68       83.47    
        83.30       83.16     -1000.0     -1000.0     -1000.0     -1000.0     -1000.0     -1000.0     -1000.0     -1000.0    
      -1000.0     -1000.0     -1000.0     -1000.0     -1000.0     -1000.0     -1000.0     -1000.0     -1000.0     -1000.0    
   4  -1000.0     -1000.0     -1000.0     -1000.0     -1000.0     -1000.0     -1000.0     -1000.0     -1000.0     -1000.0    
      -1000.0     -1000.0     -1000.0     -1000.0       87.76       87.54       87.25       86.96       86.67       86.36    
        86.05       85.73       85.41       85.09       84.78       84.46       84.16       83.87       83.60       83.36    
        83.15       83.02     -1000.0     -1000.0     -1000.0     -1000.0     -1000.0     -1000.0     -1000.0     -1000.0    
      -1000.0     -1000.0     -1000.0     -1000.0     -1000.0     -1000.0     -1000.0     -1000.0     -1000.0     -1000.0    
   5  -1000.0     -1000.0     -1000.0     -1000.0     -1000.0     -1000.0     -1000.0     -1000.0     -1000.0       89.45    
        89.36       89.18       88.91       88.56       88.08       87.71       87.37       87.05       86.73       86.40    
        86.08       85.75       85.41       85.08       84.75       84.43       84.11       83.79       83.49       83.20    
        82.94       82.73     -1000.0     -1000.0     -1000.0     -1000.0     -1000.0     -1000.0     -1000.0     -1000.0    
      -1000.0     -1000.0     -1000.0     -1000.0     -1000.0     -1000.0     -1000.0     -1000.0     -1000.0     -1000.0    
   6  -1000.0     -1000.0     -1000.0     -1000.0     -1000.0     -1000.0     -1000.0     -1000.0     -1000.0       89.49    
        89.40       89.22       88.96       88.63       88.24       87.85       87.48       87.13       86.79       86.44    
        86.10       85.76       85.41       85.07       84.72       84.38       84.04       83.70       83.37       83.03    
        82.67       82.25       81.57       80.99       80.48       80.01       79.61       79.33     -1000.0     -1000.0    
      -1000.0     -1000.0     -1000.0     -1000.0     -1000.0     -1000.0     -1000.0     -1000.0     -1000.0     -1000.0    
   7  -1000.0     -1000.0     -1000.0     -1000.0     -1000.0     -1000.0     -1000.0     -1000.0     -1000.0       89.58    
        89.48       89.29       89.04       88.72       88.35       87.96       87.57       87.20       86.84       86.48    
        86.12       85.77       85.41       85.05       84.69       84.33       83.97       83.61       83.25       82.87    
        82.46       82.00       81.46       80.93       80.42       79.95       79.49       79.04       78.45       77.95    
        77.53       77.24     -1000.0     -1000.0     -1000.0     -1000.0     -1000.0     -1000.0     -1000.0     -1000.0    
   8  -1000.0     -1000.0     -1000.0     -1000.0     -1000.0     -1000.0     -1000.0     -1000.0     -1000.0       89.74    
        89.60       89.39       89.13       88.81       88.45       88.05       87.65       87.27       86.89       86.52    
        86.15       85.77       85.40       85.03       84.66       84.28       83.91       83.52       83.13       82.73    
        82.30       81.84       81.34       80.84       80.34       79.85       79.37       78.88       78.36       77.87    
        77.40       76.94       76.38       75.93       75.65     -1000.0     -1000.0     -1000.0     -1000.0     -1000.0    
   9  -1000.0     -1000.0     -1000.0     -1000.0     -1000.0     -1000.0       90.54       90.45       90.27       89.98    
        89.75       89.51       89.22       88.90       88.53       88.12       87.72       87.33       86.94       86.55    
        86.17       85.78       85.40       85.01       84.63       84.24       83.84       83.44       83.03       82.61    
        82.17       81.71       81.23       80.74       80.24       79.75       79.26       78.76       78.25       77.75    
        77.25       76.76       76.25       75.78       75.36       74.95     -1000.0     -1000.0     -1000.0     -1000.0    
  10  -1000.0     -1000.0     -1000.0     -1000.0     -1000.0     -1000.0       90.58       90.49       90.33       90.11    
        89.87       89.61       89.32       88.98       88.61       88.20       87.79       87.38       86.98       86.58    
        86.18       85.79       85.39       84.99       84.59       84.19       83.78       83.37       82.94       82.51    
        82.06       81.60       81.12       80.63       80.14       79.64       79.14       78.64       78.13       77.61    
        77.10       76.59       76.07       75.56       75.06       74.54       73.91       73.56     -1000.0     -1000.0    
  11  -1000.0     -1000.0     -1000.0     -1000.0     -1000.0       90.77       90.68       90.57       90.41       90.21    
        89.97       89.71       89.40       89.06       88.68       88.26       87.84       87.43       87.02       86.61    
        86.20       85.79       85.38       84.97       84.56       84.15       83.73       83.30       82.86       82.42    
        81.97       81.50       81.02       80.53       80.04       79.54       79.03       78.52       78.00       77.48    
        76.95       76.42       75.88       75.34       74.79       74.21       73.63       73.20     -1000.0     -1000.0    
  12  -1000.0     -1000.0     -1000.0     -1000.0     -1000.0       90.81       90.75       90.64       90.49       90.29    
        90.06       89.79       89.48       89.13       88.75       88.32       87.89       87.47       87.05       86.63    
        86.21       85.79       85.37       84.95       84.53       84.11       83.67       83.24       82.79       82.34    
        81.88       81.41       80.92       80.43       79.94       79.43       78.92       78.40       77.88       77.34    
        76.80       76.26       75.69       75.12       74.52       73.89       73.21       72.41       71.16       70.00    
  13  -1000.0     -1000.0     -1000.0     -1000.0     -1000.0       90.87       90.82       90.72       90.57       90.37    
        90.14       89.87       89.55       89.20       88.81       88.37       87.94       87.51       87.08       86.65    
        86.22       85.79       85.37       84.94       84.50       84.07       83.63       83.18       82.73       82.27    
        81.80       81.32       80.83       80.34       79.84       79.33       78.81       78.29       77.75       77.21    
        76.66       76.10       75.52       74.92       74.29       73.62       72.88       72.05       71.04       70.00    
  14  -1000.0     -1000.0     -1000.0     -1000.0     -1000.0       90.95       90.89       90.79       90.64       90.45    
        90.22       89.94       89.62       89.26       88.86       88.42       87.98       87.54       87.10       86.67    
        86.23       85.80       85.36       84.92       84.48       84.03       83.58       83.13       82.67       82.20    
        81.72       81.24       80.75       80.25       79.75       79.23       78.71       78.18       77.64       77.09    
        76.53       75.95       75.35       74.74       74.09       73.40       72.66       71.84       70.94       70.00    
  15  -1000.0     -1000.0     -1000.0     -1000.0     -1000.0       91.03       90.98       90.87       90.72       90.52    
        90.29       90.00       89.68       89.32       88.91       88.46       88.02       87.57       87.13       86.68    
        86.24       85.79       85.35       84.90       84.45       84.00       83.54       83.08       82.61       82.13    
        81.65       81.17       80.67       80.17       79.66       79.14       78.61       78.08       77.53       76.97    
        76.40       75.81       75.21       74.58       73.92       73.23       72.49       71.71       70.87       70.00    
  16  -1000.0     -1000.0     -1000.0     -1000.0     -1000.0       91.12       91.06       90.95       90.80       90.60    
        90.35       90.07       89.74       89.37       88.96       88.50       88.05       87.60       87.15       86.69    
        86.24       85.79       85.34       84.88       84.42       83.96       83.50       83.03       82.55       82.07    
        81.59       81.10       80.60       80.09       79.57       79.05       78.52       77.98       77.43       76.86    
        76.29       75.69       75.08       74.45       73.79       73.10       72.37       71.61       70.82       70.00    
  17  -1000.0     -1000.0     -1000.0     -1000.0     -1000.0       91.22       91.16       91.04       90.88       90.67    
        90.42       90.12       89.79       89.42       89.00       88.54       88.08       87.62       87.16       86.71    
        86.25       85.79       85.33       84.87       84.40       83.93       83.46       82.98       82.50       82.02    
        81.53       81.03       80.52       80.01       79.50       78.97       78.43       77.89       77.33       76.76    
        76.18       75.58       74.97       74.34       73.68       72.99       72.28       71.54       70.78       70.00    
  18  -1000.0     -1000.0     -1000.0     -1000.0     -1000.0       91.34       91.26       91.13       90.95       90.74    
        90.48       90.18       89.84       89.46       89.03       88.57       88.10       87.64       87.18       86.71    
        86.25       85.79       85.32       84.85       84.38       83.90       83.42       82.94       82.45       81.96    
        81.47       80.97       80.46       79.94       79.42       78.89       78.35       77.80       77.24       76.67    
        76.09       75.49       74.87       74.24       73.59       72.91       72.21       71.49       70.75       70.00    
  19  -1000.0     -1000.0     -1000.0     -1000.0       91.64       91.50       91.37       91.22       91.03       90.80    
        90.53       90.23       89.88       89.50       89.07       88.60       88.13       87.66       87.19       86.72    
        86.25       85.78       85.31       84.83       84.35       83.87       83.38       82.90       82.41       81.91    
        81.41       80.91       80.39       79.88       79.35       78.82       78.28       77.73       77.16       76.59    
        76.01       75.41       74.79       74.16       73.51       72.84       72.16       71.45       70.73       70.00    
  20  -1000.0     -1000.0     -1000.0       91.84       91.74       91.61       91.47       91.30       91.10       90.86    
        90.59       90.27       89.92       89.53       89.10       88.62       88.14       87.67       87.20       86.73    
        86.25       85.78       85.30       84.82       84.33       83.84       83.35       82.86       82.36       81.86    
        81.36       80.85       80.33       79.81       79.29       78.75       78.21       77.66       77.09       76.52    
        75.93       75.33       74.72       74.09       73.45       72.79       72.11       71.42       70.71       70.00    
  21  -1000.0     -1000.0     -1000.0       91.89       91.81       91.69       91.54       91.36       91.15       90.91    
        90.63       90.31       89.95       89.56       89.12       88.64       88.16       87.68       87.21       86.73    
        86.25       85.77       85.28       84.80       84.30       83.81       83.31       82.82       82.32       81.81    
        81.31       80.79       80.28       79.76       79.23       78.69       78.14       77.59       77.03       76.45    
        75.87       75.27       74.66       74.03       73.39       72.74       72.07       71.39       70.70       70.00    
  22  -1000.0     -1000.0       92.08       91.99       91.89       91.76       91.60       91.42       91.20       90.95    
        90.67       90.34       89.98       89.58       89.14       88.65       88.17       87.69       87.21       86.73    
        86.24       85.76       85.27       84.78       84.28       83.78       83.28       82.78       82.27       81.77    
        81.26       80.74       80.22       79.70       79.17       78.63       78.09       77.53       76.97       76.39    
        75.81       75.21       74.60       73.98       73.35       72.70       72.04       71.37       70.69       70.00    
  23  -1000.0       92.18       92.13       92.04       91.94       91.81       91.65       91.46       91.24       90.98    
        90.69       90.37       90.00       89.60       89.15       88.66       88.18       87.69       87.21       86.72    
        86.23       85.74       85.25       84.75       84.25       83.75       83.25       82.74       82.23       81.73    
        81.21       80.70       80.18       79.65       79.12       78.58       78.03       77.48       76.91       76.34    
        75.76       75.16       74.56       73.94       73.31       72.67       72.02       71.35       70.68       70.00    
  24  -1000.0       92.20       92.16       92.08       91.98       91.85       91.68       91.49       91.27       91.01    
        90.71       90.38       90.01       89.61       89.16       88.67       88.18       87.69       87.20       86.71    
        86.22       85.72       85.23       84.73       84.22       83.72       83.21       82.70       82.20       81.68    
        81.17       80.65       80.13       79.60       79.07       78.53       77.98       77.43       76.87       76.29    
        75.71       75.12       74.52       73.90       73.28       72.64       72.00       71.34       70.67       70.00    
  25  -1000.0       92.21       92.17       92.10       92.00       91.87       91.70       91.51       91.28       91.02    
        90.72       90.39       90.02       89.61       89.16       88.66       88.17       87.68       87.19       86.69    
        86.20       85.70       85.20       84.70       84.20       83.69       83.18       82.67       82.16       81.65    
        81.13       80.61       80.09       79.56       79.03       78.49       77.94       77.39       76.83       76.25    
        75.67       75.08       74.49       73.87       73.25       72.62       71.98       71.33       70.67       70.00    
  26  -1000.0       92.22       92.18       92.11       92.01       91.88       91.71       91.52       91.29       91.02    
        90.72       90.39       90.02       89.60       89.15       88.65       88.16       87.66       87.17       86.67    
        86.18       85.68       85.18       84.67       84.16       83.65       83.14       82.63       82.12       81.61    
        81.09       80.57       80.05       79.52       78.99       78.45       77.91       77.35       76.79       76.22    
        75.64       75.06       74.46       73.85       73.23       72.60       71.97       71.32       70.66       70.00    
  27  -1000.0       92.22       92.18       92.11       92.01       91.88       91.71       91.51       91.28       91.01    
        90.71       90.38       90.00       89.59       89.13       88.63       88.14       87.64       87.14       86.65    
        86.15       85.65       85.15       84.64       84.13       83.62       83.11       82.60       82.09       81.57    
        81.06       80.54       80.02       79.49       78.96       78.42       77.88       77.33       76.77       76.20    
        75.62       75.03       74.44       73.83       73.22       72.59       71.96       71.31       70.66       70.00    
  28  -1000.0       92.21       92.17       92.10       92.00       91.86       91.70       91.50       91.26       91.00    
        90.69       90.35       89.98       89.56       89.11       88.61       88.11       87.61       87.11       86.62    
        86.12       85.62       85.11       84.61       84.10       83.59       83.07       82.56       82.05       81.54    
        81.03       80.51       79.99       79.46       78.93       78.40       77.86       77.31       76.75       76.18    
        75.61       75.02       74.43       73.82       73.21       72.58       71.95       71.31       70.66       70.00    
  29  -1000.0       92.20       92.14       92.07       91.97       91.84       91.67       91.47       91.24       90.97    
        90.66       90.32       89.95       89.53       89.07       88.57       88.08       87.58       87.08       86.58    
        86.08       85.58       85.08       84.57       84.06       83.55       83.04       82.53       82.02       81.51    
        81.00       80.48       79.96       79.44       78.91       78.38       77.84       77.29       76.74       76.17    
        75.60       75.01       74.42       73.81       73.20       72.58       71.94       71.30       70.66       70.00    
  30  -1000.0     -1000.0       92.09       92.03       91.94       91.80       91.63       91.43       91.20       90.93    
        90.62       90.28       89.91       89.49       89.03       88.53       88.04       87.54       87.04       86.54    
        86.04       85.54       85.04       84.53       84.02       83.51       83.00       82.50       81.99       81.48    
        80.97       80.46       79.94       79.42       78.90       78.37       77.83       77.28       76.73       76.17    
        75.59       75.01       74.41       73.81       73.20       72.57       71.94       71.30       70.65       70.00    
  31  -1000.0     -1000.0       92.04       91.99       91.89       91.76       91.59       91.38       91.15       90.88    
        90.58       90.24       89.86       89.45       88.99       88.49       87.99       87.50       87.00       86.50    
        86.00       85.50       85.00       84.49       83.98       83.47       82.97       82.46       81.95       81.45    
        80.94       80.44       79.93       79.41       78.89       78.36       77.83       77.28       76.73       76.17    
        75.59       75.01       74.42       73.81       73.20       72.57       71.94       71.30       70.65       70.00    
  32  -1000.0     -1000.0       92.00       91.95       91.85       91.71       91.53       91.32       91.09       90.82    
        90.52       90.18       89.81       89.39       88.94       88.44       87.94       87.45       86.95       86.46    
        85.96       85.46       84.95       84.45       83.94       83.43       82.93       82.42       81.92       81.42    
        80.92       80.42       79.91       79.40       78.88       78.36       77.83       77.28       76.73       76.17    
        75.60       75.02       74.42       73.82       73.20       72.58       71.95       71.30       70.66       70.00    
  33  -1000.0     -1000.0       91.97       91.92       91.81       91.64       91.46       91.25       91.01       90.75    
        90.45       90.12       89.75       89.34       88.88       88.39       87.89       87.40       86.90       86.41    
        85.91       85.41       84.91       84.40       83.89       83.39       82.89       82.39       81.89       81.39    
        80.90       80.40       79.90       79.39       78.88       78.36       77.83       77.29       76.74       76.18    
        75.61       75.03       74.44       73.83       73.21       72.59       71.95       71.31       70.66       70.00    
  34  -1000.0     -1000.0       91.96       91.89       91.77       91.56       91.36       91.15       90.93       90.67    
        90.38       90.05       89.68       89.27       88.82       88.33       87.84       87.35       86.85       86.36    
        85.86       85.36       84.86       84.35       83.85       83.34       82.84       82.34       81.85       81.36    
        80.87       80.38       79.88       79.38       78.88       78.37       77.84       77.31       76.76       76.20    
        75.63       75.05       74.45       73.85       73.23       72.60       71.96       71.32       70.66       70.00    
  35  -1000.0     -1000.0     -1000.0     -1000.0     -1000.0       91.42       91.24       91.04       90.82       90.58    
        90.29       89.97       89.61       89.21       88.76       88.27       87.78       87.29       86.80       86.31    
        85.82       85.31       84.81       84.30       83.79       83.29       82.79       82.29       81.81       81.32    
        80.84       80.36       79.87       79.38       78.89       78.38       77.86       77.33       76.79       76.23    
        75.66       75.08       74.48       73.87       73.25       72.62       71.97       71.32       70.66       70.00    
  36  -1000.0     -1000.0     -1000.0     -1000.0     -1000.0     -1000.0       91.08       90.89       90.70       90.47    
        90.21       89.89       89.54       89.13       88.69       88.20       87.72       87.24       86.75       86.27    
        85.77       85.27       84.76       84.24       83.73       83.23       82.73       82.24       81.75       81.28    
        80.81       80.34       79.86       79.39       78.90       78.40       77.89       77.36       76.82       76.27    
        75.70       75.11       74.51       73.90       73.27       72.63       71.99       71.33       70.67       70.00    
  37  -1000.0     -1000.0     -1000.0     -1000.0     -1000.0     -1000.0     -1000.0       90.69       90.57       90.37    
        90.12       89.81       89.46       89.06       88.61       88.13       87.65       87.18       86.71       86.22    
        85.73       85.22       84.71       84.19       83.67       83.15       82.65       82.17       81.69       81.23    
        80.77       80.32       79.86       79.39       78.92       78.43       77.92       77.40       76.87       76.32    
        75.75       75.16       74.56       73.94       73.30       72.66       72.00       71.34       70.67       70.00    
  38  -1000.0     -1000.0     -1000.0     -1000.0     -1000.0     -1000.0     -1000.0       90.57       90.46       90.27    
        90.03       89.74       89.39       88.98       88.53       88.05       87.58       87.13       86.67       86.19    
        85.70       85.18       84.66       84.12       83.59       83.06       82.56       82.08       81.62       81.18    
        80.74       80.30       79.86       79.41       78.95       78.47       77.97       77.46       76.93       76.38    
        75.81       75.22       74.61       73.98       73.34       72.68       72.02       71.35       70.68       70.00    
  39  -1000.0     -1000.0     -1000.0     -1000.0     -1000.0     -1000.0     -1000.0       90.51       90.40       90.19    
        89.96       89.67       89.32       88.90       88.42       87.94       87.50       87.07       86.64       86.18    
        85.68       85.15       84.61       84.06       83.50       82.95       82.44       81.97       81.53       81.11    
        80.70       80.28       79.86       79.43       78.99       78.52       78.04       77.53       77.00       76.45    
        75.88       75.30       74.68       74.04       73.38       72.71       72.04       71.36       70.68       70.00    
  40  -1000.0     -1000.0     -1000.0     -1000.0     -1000.0     -1000.0     -1000.0     -1000.0     -1000.0       90.07    
        89.90       89.63       89.27       88.83       88.26       87.80       87.40       87.03       86.64       86.20    
        85.68       85.14       84.57       83.99       83.39       82.79       82.28       81.83       81.43       81.04    
        80.65       80.27       79.87       79.47       79.05       78.60       78.12       77.62       77.09       76.54    
        75.97       75.39       74.78       74.10       73.42       72.73       72.05       71.37       70.69       70.00    
  41  -1000.0     -1000.0     -1000.0     -1000.0     -1000.0     -1000.0     -1000.0     -1000.0     -1000.0     -1000.0    
      -1000.0     -1000.0     -1000.0     -1000.0       87.95       87.59       87.29       86.99       86.68       86.30    
        85.71       85.13       84.55       83.95       83.29       82.52       82.05       81.66       81.30       80.95    
        80.61       80.26       79.90       79.52       79.13       78.70       78.22       77.73       77.21       76.64    
        76.07       75.52       74.94       74.17       73.45       72.75       72.06       71.38       70.69       70.00    
  42  -1000.0     -1000.0     -1000.0     -1000.0     -1000.0     -1000.0     -1000.0     -1000.0     -1000.0     -1000.0    
      -1000.0     -1000.0     -1000.0     -1000.0     -1000.0       87.31       87.17       86.98       86.78       86.61    
      -1000.0     -1000.0     -1000.0     -1000.0     -1000.0       81.96       81.73       81.45       81.16       80.86    
        80.56       80.25       79.94       79.60       79.24       78.83       78.35       77.87       77.37       76.72    
        76.15       75.66       75.30     -1000.0     -1000.0     -1000.0     -1000.0     -1000.0     -1000.0     -1000.0    
  43  -1000.0     -1000.0     -1000.0     -1000.0     -1000.0     -1000.0     -1000.0     -1000.0     -1000.0     -1000.0    
      -1000.0     -1000.0     -1000.0     -1000.0     -1000.0       87.17       87.09       86.97       86.85       86.76    
      -1000.0     -1000.0     -1000.0     -1000.0     -1000.0       81.62       81.46       81.25       81.02       80.78    
        80.52       80.26       79.99       79.70       79.40       79.04       78.47       78.01       77.69     -1000.0    
      -1000.0     -1000.0     -1000.0     -1000.0     -1000.0     -1000.0     -1000.0     -1000.0     -1000.0     -1000.0    
  44  -1000.0     -1000.0     -1000.0     -1000.0     -1000.0     -1000.0     -1000.0     -1000.0     -1000.0     -1000.0    
      -1000.0     -1000.0     -1000.0     -1000.0     -1000.0       87.12       87.06       86.97       86.88       86.82    
      -1000.0     -1000.0     -1000.0     -1000.0     -1000.0       81.43       81.25       81.08       80.90       80.70    
        80.49       80.27       80.05       79.83       79.61       79.45     -1000.0     -1000.0     -1000.0     -1000.0    
      -1000.0     -1000.0     -1000.0     -1000.0     -1000.0     -1000.0     -1000.0     -1000.0     -1000.0     -1000.0    
  45  -1000.0     -1000.0     -1000.0     -1000.0     -1000.0     -1000.0     -1000.0     -1000.0     -1000.0     -1000.0    
      -1000.0     -1000.0     -1000.0     -1000.0     -1000.0     -1000.0     -1000.0     -1000.0     -1000.0     -1000.0    
      -1000.0     -1000.0     -1000.0     -1000.0     -1000.0     -1000.0       81.01       80.92       80.79       80.64    
        80.47       80.29       80.11       79.94       79.79       79.69     -1000.0     -1000.0     -1000.0     -1000.0    
      -1000.0     -1000.0     -1000.0     -1000.0     -1000.0     -1000.0     -1000.0     -1000.0     -1000.0     -1000.0    
  46  -1000.0     -1000.0     -1000.0     -1000.0     -1000.0     -1000.0     -1000.0     -1000.0     -1000.0     -1000.0    
      -1000.0     -1000.0     -1000.0     -1000.0     -1000.0     -1000.0     -1000.0     -1000.0     -1000.0     -1000.0    
      -1000.0     -1000.0     -1000.0     -1000.0     -1000.0     -1000.0       80.86       80.80       80.71       80.59    
        80.45       80.31       80.17       80.03       79.90       79.83     -1000.0     -1000.0     -1000.0     -1000.0    
      -1000.0     -1000.0     -1000.0     -1000.0     -1000.0     -1000.0     -1000.0     -1000.0     -1000.0     -1000.0    
  47  -1000.0     -1000.0     -1000.0     -1000.0     -1000.0     -1000.0     -1000.0     -1000.0     -1000.0     -1000.0    
      -1000.0     -1000.0     -1000.0     -1000.0     -1000.0     -1000.0     -1000.0     -1000.0     -1000.0     -1000.0    
      -1000.0     -1000.0     -1000.0     -1000.0     -1000.0     -1000.0       80.77       80.72       80.65       80.55    
        80.45       80.33       80.22       80.10       79.97       79.90     -1000.0     -1000.0     -1000.0     -1000.0    
      -1000.0     -1000.0     -1000.0     -1000.0     -1000.0     -1000.0     -1000.0     -1000.0     -1000.0     -1000.0    
  48  -1000.0     -1000.0     -1000.0     -1000.0     -1000.0     -1000.0     -1000.0     -1000.0     -1000.0     -1000.0    
      -1000.0     -1000.0     -1000.0     -1000.0     -1000.0     -1000.0     -1000.0     -1000.0     -1000.0     -1000.0    
      -1000.0     -1000.0     -1000.0     -1000.0     -1000.0     -1000.0       80.72       80.67       80.61       80.53    
        80.45       80.36       80.27       80.18     -1000.0     -1000.0     -1000.0     -1000.0     -1000.0     -1000.0    
      -1000.0     -1000.0     -1000.0     -1000.0     -1000.0     -1000.0     -1000.0     -1000.0     -1000.0     -1000.0    
  49  -1000.0     -1000.0     -1000.0     -1000.0     -1000.0     -1000.0     -1000.0     -1000.0     -1000.0     -1000.0    
      -1000.0     -1000.0     -1000.0     -1000.0     -1000.0     -1000.0     -1000.0     -1000.0     -1000.0     -1000.0    
      -1000.0     -1000.0     -1000.0     -1000.0     -1000.0     -1000.0     -1000.0       80.63       80.59       80.52    
        80.45       80.38       80.32     -1000.0     -1000.0     -1000.0     -1000.0     -1000.0     -1000.0     -1000.0    
      -1000.0     -1000.0     -1000.0     -1000.0     -1000.0     -1000.0     -1000.0     -1000.0     -1000.0     -1000.0    
  50  -1000.0     -1000.0     -1000.0     -1000.0     -1000.0     -1000.0     -1000.0     -1000.0     -1000.0     -1000.0    
      -1000.0     -1000.0     -1000.0     -1000.0     -1000.0     -1000.0     -1000.0     -1000.0     -1000.0     -1000.0    
      -1000.0     -1000.0     -1000.0     -1000.0     -1000.0     -1000.0     -1000.0     -1000.0     -1000.0     -1000.0    
      -1000.0     -1000.0     -1000.0     -1000.0     -1000.0     -1000.0     -1000.0     -1000.0     -1000.0     -1000.0    
      -1000.0     -1000.0     -1000.0     -1000.0     -1000.0     -1000.0     -1000.0     -1000.0     -1000.0     -1000.0    
1
              HEAD IN LAYER   2 AT END OF TIME STEP   1 IN STRESS PERIOD    1
  ---------------------------------------------------------------------------

            1           2           3           4           5           6           7           8           9          10
           11          12          13          14          15          16          17          18          19          20
           21          22          23          24          25          26          27          28          29          30
           31          32          33          34          35          36          37          38          39          40
           41          42          43          44          45          46          47          48          49          50
 ........................................................................................................................
   1  -1000.0     -1000.0     -1000.0     -1000.0     -1000.0     -1000.0     -1000.0     -1000.0     -1000.0     -1000.0    
      -1000.0     -1000.0     -1000.0     -1000.0     -1000.0     -1000.0     -1000.0     -1000.0     -1000.0     -1000.0    
      -1000.0     -1000.0     -1000.0     -1000.0     -1000.0     -1000.0     -1000.0     -1000.0     -1000.0     -1000.0    
      -1000.0     -1000.0     -1000.0     -1000.0     -1000.0     -1000.0     -1000.0     -1000.0     -1000.0     -1000.0    
      -1000.0     -1000.0     -1000.0     -1000.0     -1000.0     -1000.0     -1000.0     -1000.0     -1000.0     -1000.0    
   2  -1000.0     -1000.0     -1000.0     -1000.0     -1000.0     -1000.0     -1000.0     -1000.0     -1000.0     -1000.0    
      -1000.0     -1000.0     -1000.0     -1000.0     -1000.0     -1000.0       86.97       86.81       86.58       86.31    
        86.02       85.72       85.41       85.11       84.80       84.51       84.22       83.96       83.73       83.54    
        83.42     -1000.0     -1000.0     -1000.0     -1000.0     -1000.0     -1000.0     -1000.0     -1000.0     -1000.0    
      -1000.0     -1000.0     -1000.0     -1000.0     -1000.0     -1000.0     -1000.0     -1000.0     -1000.0     -1000.0    
   3  -1000.0     -1000.0     -1000.0     -1000.0     -1000.0     -1000.0     -1000.0     -1000.0     -1000.0     -1000.0    
      -1000.0     -1000.0     -1000.0     -1000.0       87.62       87.43       87.14       86.88       86.61       86.33    
        86.03       85.73       85.42       85.10       84.79       84.49       84.20       83.93       83.68       83.47    
        83.30       83.16     -1000.0     -1000.0     -1000.0     -1000.0     -1000.0     -1000.0     -1000.0     -1000.0    
      -1000.0     -1000.0     -1000.0     -1000.0     -1000.0     -1000.0     -1000.0     -1000.0     -1000.0     -1000.0    
   4  -1000.0     -1000.0     -1000.0     -1000.0     -1000.0     -1000.0     -1000.0     -1000.0     -1000.0     -1000.0    
      -1000.0     -1000.0     -1000.0     -1000.0       87.76       87.54       87.25       86.96       86.67       86.36    
        86.05       85.73       85.41       85.09       84.78       84.46       84.16       83.87       83.60       83.36    
        83.15       83.02     -1000.0     -1000.0     -1000.0     -1000.0     -1000.0     -1000.0     -1000.0     -1000.0    
      -1000.0     -1000.0     -1000.0     -1000.0     -1000.0     -1000.0     -1000.0     -1000.0     -1000.0     -1000.0    
   5  -1000.0     -1000.0     -1000.0     -1000.0     -1000.0     -1000.0     -1000.0     -1000.0     -1000.0       89.45    
        89.36       89.18       88.91       88.56       88.08       87.71       87.37       87.05       86.73       86.40    
        86.08       85.75       85.41       85.08       84.75       84.43       84.11       83.79       83.49       83.20    
        82.94       82.73     -1000.0     -1000.0     -1000.0     -1000.0     -1000.0     -1000.0     -1000.0     -1000.0    
      -1000.0     -1000.0     -1000.0     -1000.0     -1000.0     -1000.0     -1000.0     -1000.0     -1000.0     -1000.0    
   6  -1000.0     -1000.0     -1000.0     -1000.0     -1000.0     -1000.0     -1000.0     -1000.0     -1000.0       89.49    
        89.40       89.22       88.96       88.63       88.24       87.85       87.48       87.13       86.79       86.44    
        86.10       85.76       85.41       85.07       84.72       84.38       84.04       83.70       83.37       83.03    
        82.67       82.25       81.57       80.99       80.48       80.01       79.61       79.33     -1000.0     -1000.0    
      -1000.0     -1000.0     -1000.0     -1000.0     -1000.0     -1000.0     -1000.0     -1000.0     -1000.0     -1000.0    
   7  -1000.0     -1000.0     -1000.0     -1000.0     -1000.0     -1000.0     -1000.0     -1000.0     -1000.0       89.58    
        89.48       89.29       89.04       88.72       88.35       87.96       87.57       87.20       86.84       86.48    
        86.12       85.77       85.41       85.05       84.69       84.33       83.97       83.61       83.25       82.87    
        82.46       82.00       81.46       80.93       80.42       79.95       79.49       79.04       78.45       77.95    
        77.53       77.24     -1000.0     -1000.0     -1000.0     -1000.0     -1000.0     -1000.0     -1000.0     -1000.0    
   8  -1000.0     -1000.0     -1000.0     -1000.0     -1000.0     -1000.0     -1000.0     -1000.0     -1000.0       89.74    
        89.60       89.39       89.13       88.81       88.45       88.05       87.65       87.27       86.89       86.52    
        86.15       85.77       85.40       85.03       84.66       84.28       83.91       83.52       83.13       82.73    
        82.30       81.84       81.34       80.84       80.34       79.85       79.37       78.88       78.36       77.87    
        77.40       76.94       76.38       75.93       75.65     -1000.0     -1000.0     -1000.0     -1000.0     -1000.0    
   9  -1000.0     -1000.0     -1000.0     -1000.0     -1000.0     -1000.0       90.54       90.45       90.27       89.98    
        89.75       89.51       89.22       88.90       88.53       88.12       87.72       87.33       86.94       86.55    
        86.17       85.78       85.40       85.01       84.63       84.24       83.84       83.44       83.03       82.61    
        82.17       81.71       81.23       80.74       80.24       79.75       79.26       78.76       78.25       77.75    
        77.25       76.76       76.25       75.78       75.36       74.95     -1000.0     -1000.0     -1000.0     -1000.0    
  10  -1000.0     -1000.0     -1000.0     -1000.0     -1000.0     -1000.0       90.58       90.49       90.33       90.11    
        89.87       89.61       89.32       88.98       88.61       88.20       87.79       87.38       86.98       86.58    
        86.18       85.79       85.39       84.99       84.59       84.19       83.78       83.37       82.94       82.51    
        82.06       81.60       81.12       80.63       80.14       79.64       79.14       78.64       78.13       77.61    
        77.10       76.59       76.07       75.56       75.06       74.54       73.91       73.56     -1000.0     -1000.0    
  11  -1000.0     -1000.0     -1000.0     -1000.0     -1000.0       90.77       90.68       90.57       90.41       90.21    
        89.97       89.71       89.40       89.06       88.68       88.26       87.84       87.43       87.02       86.61    
        86.20       85.79       85.38       84.97       84.56       84.15       83.73       83.30       82.86       82.42    
        81.97       81.50       81.02       80.53       80.04       79.54       79.03       78.52       78.00       77.48    
        76.95       76.42       75.88       75.34       74.79       74.21       73.63       73.20     -1000.0     -1000.0    
  12  -1000.0     -1000.0     -1000.0     -1000.0     -1000.0       90.81       90.75       90.64       90.49       90.29    
        90.06       89.79       89.48       89.13       88.75       88.32       87.89       87.47       87.05       86.63    
        86.21       85.79       85.37       84.95       84.53       84.11       83.67       83.24       82.79       82.34    
        81.88       81.41       80.92       80.43       79.94       79.43       78.92       78.40       77.88       77.34    
        76.80       76.26       75.69       75.12       74.52       73.89       73.21       72.41       71.16       70.00    
  13  -1000.0     -1000.0     -1000.0     -1000.0     -1000.0       90.87       90.82       90.72       90.57       90.37    
        90.14       89.87       89.55       89.20       88.81       88.37       87.94       87.51       87.08       86.65    
        86.22       85.79       85.37       84.94       84.50       84.07       83.63       83.18       82.73       82.27    
        81.80       81.32       80.83       80.34       79.84       79.33       78.81       78.29       77.75       77.21    
        76.66       76.10       75.52       74.92       74.29       73.62       72.88       72.05       71.04       70.00    
  14  -1000.0     -1000.0     -1000.0     -1000.0     -1000.0       90.95       90.89       90.79       90.64       90.45    
        90.21       89.94       89.62       89.26       88.86       88.42       87.98       87.54       87.10       86.67    
        86.23       85.79       85.36       84.92       84.48       84.03       83.58       83.13       82.67       82.20    
        81.72       81.24       80.75       80.25       79.75       79.23       78.71       78.18       77.64       77.09    
        76.53       75.95       75.35       74.74       74.09       73.40       72.66       71.84       70.94       70.00    
  15  -1000.0     -1000.0     -1000.0     -1000.0     -1000.0       91.03       90.98       90.87       90.72       90.52    
        90.29       90.00       89.68       89.32       88.91       88.46       88.02       87.57       87.13       86.68    
        86.24       85.79       85.35       84.90       84.45       84.00       83.54       83.08       82.61       82.13    
        81.65       81.17       80.67       80.17       79.66       79.14       78.61       78.08       77.53       76.97    
        76.40       75.81       75.21       74.58       73.92       73.23       72.49       71.71       70.87       70.00    
  16  -1000.0     -1000.0     -1000.0     -1000.0     -1000.0       91.12       91.06       90.95       90.80       90.60    
        90.35       90.07       89.74       89.37       88.96       88.50       88.05       87.60       87.15       86.69    
        86.24       85.79       85.34       84.88       84.42       83.96       83.50       83.03       82.55       82.07    
        81.59       81.10       80.60       80.09       79.57       79.05       78.52       77.98       77.43       76.86    
        76.29       75.69       75.08       74.45       73.79       73.10       72.37       71.61       70.82       70.00    
  17  -1000.0     -1000.0     -1000.0     -1000.0     -1000.0       91.22       91.16       91.04       90.88       90.67    
        90.42       90.12       89.79       89.42       89.00       88.54       88.08       87.62       87.16       86.71    
        86.25       85.79       85.33       84.87       84.40       83.93       83.46       82.98       82.50       82.02    
        81.53       81.03       80.52       80.01       79.50       78.97       78.43       77.89       77.33       76.76    
        76.18       75.58       74.97       74.34       73.68       72.99       72.28       71.54       70.78       70.00    
  18  -1000.0     -1000.0     -1000.0     -1000.0     -1000.0       91.34       91.26       91.13       90.95       90.74    
        90.48       90.18       89.84       89.46       89.03       88.57       88.10       87.64       87.18       86.71    
        86.25       85.79       85.32       84.85       84.38       83.90       83.42       82.94       82.45       81.96    
        81.47       80.97       80.46       79.94       79.42       78.89       78.35       77.80       77.24       76.67    
        76.09       75.49       74.87       74.24       73.59       72.91       72.21       71.49       70.75       70.00    
  19  -1000.0     -1000.0     -1000.0     -1000.0       91.64       91.50       91.37       91.22       91.03       90.80    
        90.53       90.23       89.88       89.50       89.07       88.60       88.13       87.66       87.19       86.72    
        86.25       85.78       85.31       84.83       84.35       83.87       83.38       82.90       82.41       81.91    
        81.41       80.91       80.39       79.88       79.35       78.82       78.28       77.73       77.16       76.59    
        76.01       75.41       74.79       74.16       73.51       72.84       72.16       71.45       70.73       70.00    
  20  -1000.0     -1000.0     -1000.0       91.84       91.74       91.61       91.47       91.30       91.10       90.86    
        90.59       90.27       89.92       89.53       89.10       88.62       88.14       87.67       87.20       86.73    
        86.25       85.78       85.30       84.82       84.33       83.84       83.35       82.86       82.36       81.86    
        81.36       80.85       80.33       79.81       79.29       78.75       78.21       77.66       77.09       76.52    
        75.93       75.33       74.72       74.09       73.45       72.79       72.11       71.42       70.71       70.00    
  21  -1000.0     -1000.0     -1000.0       91.89       91.81       91.69       91.54       91.36       91.15       90.91    
        90.63       90.31       89.95       89.56       89.12       88.64       88.16       87.68       87.21       86.73    
        86.25       85.77       85.28       84.80       84.30       83.81       83.31       82.82       82.32       81.81    
        81.31       80.79       80.28       79.76       79.23       78.69       78.14       77.59       77.03       76.45    
        75.87       75.27       74.66       74.03       73.39       72.74       72.07       71.39       70.70       70.00    
  22  -1000.0     -1000.0       92.08       91.99       91.89       91.76       91.60       91.42       91.20       90.95    
        90.67       90.34       89.98       89.58       89.14       88.65       88.17       87.69       87.21       86.73    
        86.24       85.76       85.27       84.78       84.28       83.78       83.28       82.78       82.27       81.77    
        81.26       80.74       80.22       79.70       79.17       78.63       78.09       77.53       76.97       76.39    
        75.81       75.21       74.60       73.98       73.35       72.70       72.04       71.37       70.69       70.00    
  23  -1000.0       92.18       92.13       92.04       91.94       91.81       91.65       91.46       91.24       90.98    
        90.69       90.37       90.00       89.60       89.15       88.66       88.18       87.69       87.21       86.72    
        86.23       85.74       85.25       84.75       84.25       83.75       83.25       82.74       82.23       81.73    
        81.21       80.70       80.18       79.65       79.12       78.58       78.03       77.48       76.91       76.34    
        75.76       75.16       74.56       73.94       73.31       72.67       72.02       71.35       70.68       70.00    
  24  -1000.0       92.20       92.16       92.08       91.98       91.85       91.68       91.49       91.27       91.01    
        90.71       90.38       90.01       89.61       89.16       88.67       88.18       87.69       87.20       86.71    
        86.22       85.72       85.23       84.73       84.22       83.72       83.21       82.70       82.20       81.68    
        81.17       80.65       80.13       79.60       79.07       78.53       77.98       77.43       76.87       76.29    
        75.71       75.12       74.52       73.90       73.28       72.64       72.00       71.34       70.67       70.00    
  25  -1000.0       92.21       92.17       92.10       92.00       91.87       91.70       91.51       91.28       91.02    
        90.72       90.39       90.02       89.61       89.16       88.66       88.17       87.68       87.19       86.69    
        86.20       85.70       85.20       84.70       84.20       83.69       83.18       82.67       82.16       81.65    
        81.13       80.61       80.09       79.56       79.03       78.49       77.94       77.39       76.83       76.25    
        75.67       75.08       74.49       73.87       73.25       72.62       71.98       71.33       70.67       70.00    
  26  -1000.0       92.22       92.18       92.11       92.01       91.88       91.71       91.52       91.29       91.02    
        90.72       90.39       90.02       89.60       89.15       88.65       88.16       87.66       87.17       86.67    
        86.18       85.68       85.18       84.67       84.16       83.65       83.14       82.63       82.12       81.61    
        81.09       80.57       80.05       79.52       78.99       78.45       77.91       77.35       76.79       76.22    
        75.64       75.06       74.46       73.85       73.23       72.60       71.97       71.32       70.66       70.00    
  27  -1000.0       92.22       92.18       92.11       92.01       91.88       91.71       91.51       91.28       91.01    
        90.71       90.38       90.00       89.59       89.13       88.63       88.14       87.64       87.14       86.65    
        86.15       85.65       85.15       84.64       84.13       83.62       83.11       82.60       82.09       81.57    
        81.06       80.54       80.02       79.49       78.96       78.42       77.88       77.33       76.77       76.20    
        75.62       75.03       74.44       73.83       73.22       72.59       71.96       71.31       70.66       70.00    
  28  -1000.0       92.21       92.17       92.10       92.00       91.86       91.70       91.50       91.26       90.99    
        90.69       90.35       89.98       89.56       89.11       88.61       88.11       87.61       87.11       86.62    
        86.12       85.62       85.11       84.61       84.10       83.59       83.07       82.56       82.05       81.54    
        81.03       80.51       79.99       79.46       78.93       78.40       77.86       77.31       76.75       76.18    
        75.61       75.02       74.43       73.82       73.21       72.58       71.95       71.31       70.66       70.00    
  29  -1000.0       92.20       92.14       92.07       91.97       91.84       91.67       91.47       91.23       90.97    
        90.66       90.32       89.95       89.53       89.07       88.57       88.08       87.58       87.08       86.58    
        86.08       85.58       85.08       84.57       84.06       83.55       83.04       82.53       82.02       81.51    
        81.00       80.48       79.96       79.44       78.91       78.38       77.84       77.29       76.74       76.17    
        75.60       75.01       74.42       73.81       73.20       72.58       71.94       71.30       70.66       70.00    
  30  -1000.0     -1000.0       92.09       92.03       91.94       91.80       91.63       91.43       91.20       90.93    
        90.62       90.28       89.91       89.49       89.03       88.53       88.04       87.54       87.04       86.54    
        86.04       85.54       85.04       84.53       84.02       83.51       83.00       82.50       81.99       81.48    
        80.97       80.46       79.94       79.42       78.90       78.37       77.83       77.28       76.73       76.17    
        75.59       75.01       74.41       73.81       73.20       72.57       71.94       71.30       70.65       70.00    
  31  -1000.0     -1000.0       92.04       91.99       91.89       91.76       91.59       91.38       91.15       90.88    
        90.58       90.24       89.86       89.45       88.99       88.49       87.99       87.50       87.00       86.50    
        86.00       85.50       85.00       84.49       83.98       83.47       82.97       82.46       81.95       81.45    
        80.94       80.44       79.93       79.41       78.89       78.36       77.83       77.28       76.73       76.17    
        75.59       75.01       74.42       73.81       73.20       72.57       71.94       71.30       70.65       70.00    
  32  -1000.0     -1000.0       92.00       91.95       91.85       91.71       91.53       91.32       91.09       90.82    
        90.52       90.18       89.81       89.39       88.94       88.44       87.94       87.45       86.95       86.46    
        85.96       85.46       84.95       84.45       83.94       83.43       82.93       82.42       81.92       81.42    
        80.92       80.42       79.91       79.40       78.88       78.36       77.83       77.28       76.73       76.17    
        75.60       75.02       74.42       73.82       73.20       72.58       71.95       71.30       70.66       70.00    
  33  -1000.0     -1000.0       91.97       91.92       91.81       91.64       91.46       91.25       91.01       90.75    
        90.45       90.12       89.75       89.34       88.88       88.39       87.89       87.40       86.90       86.41    
        85.91       85.41       84.91       84.40       83.89       83.39       82.89       82.39       81.89       81.39    
        80.90       80.40       79.90       79.39       78.88       78.36       77.83       77.29       76.74       76.18    
        75.61       75.03       74.44       73.83       73.21       72.59       71.95       71.31       70.66       70.00    
  34  -1000.0     -1000.0       91.96       91.89       91.77       91.56       91.36       91.15       90.93       90.67    
        90.38       90.05       89.68       89.27       88.82       88.33       87.84       87.35       86.85       86.36    
        85.86       85.36       84.86       84.35       83.85       83.34       82.84       82.34       81.85       81.36    
        80.87       80.38       79.88       79.38       78.88       78.37       77.84       77.31       76.76       76.20    
        75.63       75.05       74.45       73.85       73.23       72.60       71.96       71.32       70.66       70.00    
  35  -1000.0     -1000.0     -1000.0     -1000.0     -1000.0       91.42       91.24       91.04       90.82       90.58    
        90.29       89.97       89.61       89.21       88.76       88.27       87.78       87.29       86.80       86.31    
        85.82       85.31       84.81       84.30       83.79       83.29       82.79       82.29       81.81       81.32    
        80.84       80.36       79.87       79.38       78.89       78.38       77.86       77.33       76.79       76.23    
        75.66       75.08       74.48       73.87       73.25       72.62       71.97       71.32       70.66       70.00    
  36  -1000.0     -1000.0     -1000.0     -1000.0     -1000.0     -1000.0       91.08       90.89       90.70       90.47    
        90.21       89.89       89.54       89.13       88.69       88.20       87.72       87.24       86.75       86.27    
        85.77       85.27       84.76       84.24       83.73       83.23       82.73       82.24       81.75       81.28    
        80.81       80.34       79.86       79.39       78.90       78.40       77.89       77.36       76.82       76.27    
        75.70       75.11       74.51       73.90       73.27       72.63       71.99       71.33       70.67       70.00    
  37  -1000.0     -1000.0     -1000.0     -1000.0     -1000.0     -1000.0     -1000.0       90.69       90.57       90.37    
        90.12       89.81       89.46       89.06       88.61       88.13       87.65       87.18       86.71       86.22    
        85.73       85.22       84.71       84.19       83.67       83.15       82.65       82.17       81.69       81.23    
        80.77       80.32       79.86       79.39       78.92       78.43       77.92       77.40       76.87       76.32    
        75.75       75.16       74.56       73.94       73.30       72.66       72.00       71.34       70.67       70.00    
  38  -1000.0     -1000.0     -1000.0     -1000.0     -1000.0     -1000.0     -1000.0       90.57       90.46       90.27    
        90.03       89.74       89.39       88.98       88.53       88.05       87.58       87.13       86.67       86.19    
        85.70       85.18       84.66       84.12       83.59       83.06       82.56       82.08       81.62       81.18    
        80.74       80.30       79.86       79.41       78.95       78.47       77.97       77.46       76.93       76.38    
        75.81       75.22       74.61       73.98       73.34       72.68       72.02       71.35       70.68       70.00    
  39  -1000.0     -1000.0     -1000.0     -1000.0     -1000.0     -1000.0     -1000.0       90.51       90.40       90.19    
        89.96       89.67       89.32       88.90       88.42       87.94       87.50       87.07       86.64       86.18    
        85.68       85.15       84.61       84.06       83.50       82.95       82.44       81.97       81.53       81.11    
        80.70       80.28       79.86       79.43       78.99       78.52       78.04       77.53       77.00       76.45    
        75.88       75.30       74.68       74.04       73.38       72.71       72.04       71.36       70.68       70.00    
  40  -1000.0     -1000.0     -1000.0     -1000.0     -1000.0     -1000.0     -1000.0     -1000.0     -1000.0       90.07    
        89.90       89.63       89.27       88.83       88.26       87.80       87.40       87.03       86.64       86.20    
        85.68       85.14       84.57       83.99       83.39       82.79       82.28       81.83       81.43       81.04    
        80.65       80.27       79.87       79.47       79.05       78.60       78.12       77.62       77.09       76.54    
        75.97       75.39       74.78       74.10       73.42       72.73       72.05       71.37       70.69       70.00    
  41  -1000.0     -1000.0     -1000.0     -1000.0     -1000.0     -1000.0     -1000.0     -1000.0     -1000.0     -1000.0    
      -1000.0     -1000.0     -1000.0     -1000.0       87.95       87.59       87.29       86.99       86.68       86.30    
        85.71       85.13       84.55       83.95       83.29       82.52       82.05       81.66       81.30       80.95    
        80.61       80.26       79.90       79.52       79.13       78.70       78.22       77.73       77.21       76.64    
        76.07       75.52       74.94       74.17       73.45       72.75       72.06       71.38       70.69       70.00    
  42  -1000.0     -1000.0     -1000.0     -1000.0     -1000.0     -1000.0     -1000.0     -1000.0     -1000.0     -1000.0    
      -1000.0     -1000.0     -1000.0     -1000.0     -1000.0       87.31       87.17       86.98       86.78       86.61    
      -1000.0     -1000.0     -1000.0     -1000.0     -1000.0       81.96       81.73       81.45       81.16       80.86    
        80.56       80.25       79.94       79.60       79.24       78.83       78.35       77.87       77.37       76.72    
        76.15       75.66       75.30     -1000.0     -1000.0     -1000.0     -1000.0     -1000.0     -1000.0     -1000.0    
  43  -1000.0     -1000.0     -1000.0     -1000.0     -1000.0     -1000.0     -1000.0     -1000.0     -1000.0     -1000.0    
      -1000.0     -1000.0     -1000.0     -1000.0     -1000.0       87.17       87.09       86.97       86.85       86.76    
      -1000.0     -1000.0     -1000.0     -1000.0     -1000.0       81.62       81.46       81.25       81.02       80.78    
        80.52       80.26       79.99       79.70       79.40       79.04       78.47       78.01       77.69     -1000.0    
      -1000.0     -1000.0     -1000.0     -1000.0     -1000.0     -1000.0     -1000.0     -1000.0     -1000.0     -1000.0    
  44  -1000.0     -1000.0     -1000.0     -1000.0     -1000.0     -1000.0     -1000.0     -1000.0     -1000.0     -1000.0    
      -1000.0     -1000.0     -1000.0     -1000.0     -1000.0       87.12       87.06       86.97       86.88       86.82    
      -1000.0     -1000.0     -1000.0     -1000.0     -1000.0       81.43       81.25       81.08       80.90       80.70    
        80.49       80.27       80.05       79.83       79.61       79.45     -1000.0     -1000.0     -1000.0     -1000.0    
      -1000.0     -1000.0     -1000.0     -1000.0     -1000.0     -1000.0     -1000.0     -1000.0     -1000.0     -1000.0    
  45  -1000.0     -1000.0     -1000.0     -1000.0     -1000.0     -1000.0     -1000.0     -1000.0     -1000.0     -1000.0    
      -1000.0     -1000.0     -1000.0     -1000.0     -1000.0     -1000.0     -1000.0     -1000.0     -1000.0     -1000.0    
      -1000.0     -1000.0     -1000.0     -1000.0     -1000.0     -1000.0       81.01       80.92       80.79       80.64    
        80.47       80.29       80.11       79.94       79.79       79.69     -1000.0     -1000.0     -1000.0     -1000.0    
      -1000.0     -1000.0     -1000.0     -1000.0     -1000.0     -1000.0     -1000.0     -1000.0     -1000.0     -1000.0    
  46  -1000.0     -1000.0     -1000.0     -1000.0     -1000.0     -1000.0     -1000.0     -1000.0     -1000.0     -1000.0    
      -1000.0     -1000.0     -1000.0     -1000.0     -1000.0     -1000.0     -1000.0     -1000.0     -1000.0     -1000.0    
      -1000.0     -1000.0     -1000.0     -1000.0     -1000.0     -1000.0       80.86       80.80       80.71       80.59    
        80.45       80.31       80.17       80.03       79.90       79.83     -1000.0     -1000.0     -1000.0     -1000.0    
      -1000.0     -1000.0     -1000.0     -1000.0     -1000.0     -1000.0     -1000.0     -1000.0     -1000.0     -1000.0    
  47  -1000.0     -1000.0     -1000.0     -1000.0     -1000.0     -1000.0     -1000.0     -1000.0     -1000.0     -1000.0    
      -1000.0     -1000.0     -1000.0     -1000.0     -1000.0     -1000.0     -1000.0     -1000.0     -1000.0     -1000.0    
      -1000.0     -1000.0     -1000.0     -1000.0     -1000.0     -1000.0       80.77       80.72       80.65       80.55    
        80.45       80.33       80.22       80.10       79.97       79.90     -1000.0     -1000.0     -1000.0     -1000.0    
      -1000.0     -1000.0     -1000.0     -1000.0     -1000.0     -1000.0     -1000.0     -1000.0     -1000.0     -1000.0    
  48  -1000.0     -1000.0     -1000.0     -1000.0     -1000.0     -1000.0     -1000.0     -1000.0     -1000.0     -1000.0    
      -1000.0     -1000.0     -1000.0     -1000.0     -1000.0     -1000.0     -1000.0     -1000.0     -1000.0     -1000.0    
      -1000.0     -1000.0     -1000.0     -1000.0     -1000.0     -1000.0       80.72       80.67       80.61       80.53    
        80.45       80.36       80.27       80.18     -1000.0     -1000.0     -1000.0     -1000.0     -1000.0     -1000.0    
      -1000.0     -1000.0     -1000.0     -1000.0     -1000.0     -1000.0     -1000.0     -1000.0     -1000.0     -1000.0    
  49  -1000.0     -1000.0     -1000.0     -1000.0     -1000.0     -1000.0     -1000.0     -1000.0     -1000.0     -1000.0    
      -1000.0     -1000.0     -1000.0     -1000.0     -1000.0     -1000.0     -1000.0     -1000.0     -1000.0     -1000.0    
      -1000.0     -1000.0     -1000.0     -1000.0     -1000.0     -1000.0     -1000.0       80.63       80.59       80.52    
        80.45       80.38       80.32     -1000.0     -1000.0     -1000.0     -1000.0     -1000.0     -1000.0     -1000.0    
      -1000.0     -1000.0     -1000.0     -1000.0     -1000.0     -1000.0     -1000.0     -1000.0     -1000.0     -1000.0    
  50  -1000.0     -1000.0     -1000.0     -1000.0     -1000.0     -1000.0     -1000.0     -1000.0     -1000.0     -1000.0    
      -1000.0     -1000.0     -1000.0     -1000.0     -1000.0     -1000.0     -1000.0     -1000.0     -1000.0     -1000.0    
      -1000.0     -1000.0     -1000.0     -1000.0     -1000.0     -1000.0     -1000.0     -1000.0     -1000.0     -1000.0    
      -1000.0     -1000.0     -1000.0     -1000.0     -1000.0     -1000.0     -1000.0     -1000.0     -1000.0     -1000.0    
      -1000.0     -1000.0     -1000.0     -1000.0     -1000.0     -1000.0     -1000.0     -1000.0     -1000.0     -1000.0    

 HEAD WILL BE SAVED ON UNIT   51 AT END OF TIME STEP    1, STRESS PERIOD    1
1
  VOLUMETRIC BUDGET FOR ENTIRE MODEL AT END OF TIME STEP    1, STRESS PERIOD   1
  ------------------------------------------------------------------------------

     CUMULATIVE VOLUMES      L**3       RATES FOR THIS TIME STEP      L**3/T
     ------------------                 ------------------------

           IN:                                      IN:
           ---                                      ---
             STORAGE =           0.0000               STORAGE =           0.0000
       CONSTANT HEAD =           0.0000         CONSTANT HEAD =           0.0000
            RECHARGE =       15400.0000              RECHARGE =       15400.0000

            TOTAL IN =       15400.0000              TOTAL IN =       15400.0000

          OUT:                                     OUT:
          ----                                     ----
             STORAGE =           0.0000               STORAGE =           0.0000
       CONSTANT HEAD =       15400.0000         CONSTANT HEAD =       15400.0000
            RECHARGE =           0.0000              RECHARGE =           0.0000

           TOTAL OUT =       15400.0000             TOTAL OUT =       15400.0000

            IN - OUT =           0.0000              IN - OUT =           0.0000

 PERCENT DISCREPANCY =           0.00     PERCENT DISCREPANCY =           0.00






         TIME SUMMARY AT END OF TIME STEP    1 IN STRESS PERIOD    1
                    SECONDS     MINUTES      HOURS       DAYS        YEARS
                    -----------------------------------------------------------
   TIME STEP LENGTH  86400.      1440.0      24.000      1.0000     2.73785E-03
 STRESS PERIOD TIME  86400.      1440.0      24.000      1.0000     2.73785E-03
         TOTAL TIME  86400.      1440.0      24.000      1.0000     2.73785E-03
1

 Run end date and time (yyyy/mm/dd hh:mm:ss): 2021/11/29 12:00:24
 Elapsed run time:  0.166 Seconds

